 xtb: 6.7.1 (edcfbbe)
          04092505213D

 41 40  0     0  0            999 V2000
    1.5149    2.5351    1.6502 C   0  0  0  0  0  0  0  0  0  0  0  0
    2.9048    1.9893    1.9092 C   0  0  0  0  0  0  0  0  0  0  0  0
    3.3825    1.1804    0.8191 O   0  0  0  0  0  0  0  0  0  0  0  0
    2.8445   -0.2805    0.5382 P   0  0  0  0  0  0  0  0  0  0  0  0
    2.5065   -1.3982    2.1193 S   0  0  0  0  0  0  0  0  0  0  0  0
    4.0632   -0.7162   -0.3754 O   0  0  0  0  0  0  0  0  0  0  0  0
    4.3698   -2.0951   -0.6431 C   0  0  0  0  0  0  0  0  0  0  0  0
    3.2956   -2.7826   -1.4631 C   0  0  0  0  0  0  0  0  0  0  0  0
    1.2187   -0.0544   -0.8279 S   0  0  0  0  0  0  0  0  0  0  0  0
   -0.0792   -0.9552    0.0734 C   0  0  0  0  0  0  0  0  0  0  0  0
   -1.3216    0.1252    0.8216 S   0  0  0  0  0  0  0  0  0  0  0  0
   -2.7458    0.1577   -0.7766 P   0  0  0  0  0  0  0  0  0  0  0  0
   -2.2171   -0.6808   -2.4602 S   0  0  0  0  0  0  0  0  0  0  0  0
   -3.2137    1.6785   -0.8713 O   0  0  0  0  0  0  0  0  0  0  0  0
   -2.5503    2.6528   -1.6938 C   0  0  0  0  0  0  0  0  0  0  0  0
   -1.1684    2.9968   -1.1763 C   0  0  0  0  0  0  0  0  0  0  0  0
   -4.0335   -0.5203   -0.1705 O   0  0  0  0  0  0  0  0  0  0  0  0
   -4.6130   -0.1289    1.1021 C   0  0  0  0  0  0  0  0  0  0  0  0
   -4.4813   -1.2666    2.0946 C   0  0  0  0  0  0  0  0  0  0  0  0
    1.2635    3.2532    2.4241 H   0  0  0  0  0  0  0  0  0  0  0  0
    1.4806    3.0237    0.6797 H   0  0  0  0  0  0  0  0  0  0  0  0
    0.7812    1.7298    1.6698 H   0  0  0  0  0  0  0  0  0  0  0  0
    2.9229    1.3894    2.8251 H   0  0  0  0  0  0  0  0  0  0  0  0
    3.6423    2.7904    1.9793 H   0  0  0  0  0  0  0  0  0  0  0  0
    5.3168   -2.0501   -1.1828 H   0  0  0  0  0  0  0  0  0  0  0  0
    4.5123   -2.6112    0.3119 H   0  0  0  0  0  0  0  0  0  0  0  0
    3.6420   -3.7702   -1.7511 H   0  0  0  0  0  0  0  0  0  0  0  0
    2.3845   -2.8891   -0.8750 H   0  0  0  0  0  0  0  0  0  0  0  0
    3.0719   -2.2052   -2.3569 H   0  0  0  0  0  0  0  0  0  0  0  0
    0.3860   -1.5165    0.8869 H   0  0  0  0  0  0  0  0  0  0  0  0
   -0.5726   -1.6104   -0.6433 H   0  0  0  0  0  0  0  0  0  0  0  0
   -2.4945    2.2634   -2.7152 H   0  0  0  0  0  0  0  0  0  0  0  0
   -3.2178    3.5154   -1.6619 H   0  0  0  0  0  0  0  0  0  0  0  0
   -1.2158    3.2627   -0.1231 H   0  0  0  0  0  0  0  0  0  0  0  0
   -0.4989    2.1463   -1.3011 H   0  0  0  0  0  0  0  0  0  0  0  0
   -0.7742    3.8347   -1.7425 H   0  0  0  0  0  0  0  0  0  0  0  0
   -4.1145    0.7738    1.4620 H   0  0  0  0  0  0  0  0  0  0  0  0
   -5.6590    0.0914    0.8842 H   0  0  0  0  0  0  0  0  0  0  0  0
   -3.4347   -1.4541    2.3220 H   0  0  0  0  0  0  0  0  0  0  0  0
   -5.0007   -1.0017    3.0099 H   0  0  0  0  0  0  0  0  0  0  0  0
   -4.9193   -2.1712    1.6820 H   0  0  0  0  0  0  0  0  0  0  0  0
  1  2  1  0  0  0  0
  2  3  1  0  0  0  0
  3  4  2  0  0  0  0
  4  5  2  0  0  0  0
  4  6  2  0  0  0  0
  6  7  1  0  0  0  0
  7  8  1  0  0  0  0
  4  9  1  0  0  0  0
  9 10  1  0  0  0  0
 10 11  1  0  0  0  0
 11 12  1  0  0  0  0
 12 13  2  0  0  0  0
 12 14  2  0  0  0  0
 14 15  1  0  0  0  0
 15 16  1  0  0  0  0
 12 17  2  0  0  0  0
 17 18  1  0  0  0  0
 18 19  1  0  0  0  0
  1 20  1  0  0  0  0
  1 21  1  0  0  0  0
  1 22  1  0  0  0  0
  2 23  1  0  0  0  0
  2 24  1  0  0  0  0
  7 25  1  0  0  0  0
  7 26  1  0  0  0  0
  8 27  1  0  0  0  0
  8 28  1  0  0  0  0
  8 29  1  0  0  0  0
 10 30  1  0  0  0  0
 10 31  1  0  0  0  0
 15 32  1  0  0  0  0
 15 33  1  0  0  0  0
 16 34  1  0  0  0  0
 16 35  1  0  0  0  0
 16 36  1  0  0  0  0
 18 37  1  0  0  0  0
 18 38  1  0  0  0  0
 19 39  1  0  0  0  0
 19 40  1  0  0  0  0
 19 41  1  0  0  0  0
M  END
