 xtb: 6.7.1 (edcfbbe)
          04092507313D

 38 37  0     0  0            999 V2000
    5.2908   -2.5152   -0.5848 C   0  0  0  0  0  0  0  0  0  0  0  0
    4.6126   -1.4115    0.2112 C   0  0  0  0  0  0  0  0  0  0  0  0
    3.1782   -1.5411    0.1569 O   0  0  0  0  0  0  0  0  0  0  0  0
    2.5393   -1.0008   -0.8588 C   0  0  0  0  0  0  0  0  0  0  0  0
    3.0632   -0.3734   -1.7525 O   0  0  0  0  0  0  0  0  0  0  0  0
    1.0467   -1.2702   -0.7786 C   0  0  0  0  0  0  0  0  0  0  0  0
    0.2861   -0.0338   -1.2440 C   0  0  0  0  0  0  0  0  0  0  0  0
    0.7258    0.3138   -2.1866 H   0  0  0  0  0  0  0  0  0  0  0  0
    0.3653    1.1068   -0.2517 C   0  0  0  0  0  0  0  0  0  0  0  0
   -0.5876    1.8193    0.0015 O   0  0  0  0  0  0  0  0  0  0  0  0
    1.5513    1.2213    0.2771 O   0  0  0  0  0  0  0  0  0  0  0  0
    1.7719    2.2747    1.2409 C   0  0  0  0  0  0  0  0  0  0  0  0
    2.0884    3.5897    0.5496 C   0  0  0  0  0  0  0  0  0  0  0  0
   -1.4669   -0.3541   -1.6220 S   0  0  0  0  0  0  0  0  0  0  0  0
   -2.3696   -0.0869    0.2797 P   0  0  0  0  0  0  0  0  0  0  0  0
   -1.3099   -0.4463    1.9002 S   0  0  0  0  0  0  0  0  0  0  0  0
   -3.2936    1.1997    0.2566 O   0  0  0  0  0  0  0  0  0  0  0  0
   -3.1304    2.3669    1.0649 C   0  0  0  0  0  0  0  0  0  0  0  0
   -3.5921   -1.1061    0.1246 O   0  0  0  0  0  0  0  0  0  0  0  0
   -3.3766   -2.5200    0.0802 C   0  0  0  0  0  0  0  0  0  0  0  0
    5.0444   -2.4208   -1.6399 H   0  0  0  0  0  0  0  0  0  0  0  0
    6.3662   -2.4341   -0.4658 H   0  0  0  0  0  0  0  0  0  0  0  0
    4.9632   -3.4882   -0.2294 H   0  0  0  0  0  0  0  0  0  0  0  0
    4.8871   -0.4277   -0.1795 H   0  0  0  0  0  0  0  0  0  0  0  0
    4.8515   -1.4824    1.2723 H   0  0  0  0  0  0  0  0  0  0  0  0
    0.7832   -1.5492    0.2422 H   0  0  0  0  0  0  0  0  0  0  0  0
    0.8164   -2.1005   -1.4490 H   0  0  0  0  0  0  0  0  0  0  0  0
    0.8787    2.3596    1.8663 H   0  0  0  0  0  0  0  0  0  0  0  0
    2.6144    1.9189    1.8335 H   0  0  0  0  0  0  0  0  0  0  0  0
    2.3254    4.3376    1.2990 H   0  0  0  0  0  0  0  0  0  0  0  0
    2.9379    3.4656   -0.1167 H   0  0  0  0  0  0  0  0  0  0  0  0
    1.2316    3.9278   -0.0286 H   0  0  0  0  0  0  0  0  0  0  0  0
   -2.5527    2.1335    1.9611 H   0  0  0  0  0  0  0  0  0  0  0  0
   -4.1348    2.6860    1.3343 H   0  0  0  0  0  0  0  0  0  0  0  0
   -2.6177    3.1341    0.4878 H   0  0  0  0  0  0  0  0  0  0  0  0
   -2.7344   -2.8278    0.9078 H   0  0  0  0  0  0  0  0  0  0  0  0
   -2.9234   -2.8015   -0.8705 H   0  0  0  0  0  0  0  0  0  0  0  0
   -4.3621   -2.9675    0.1802 H   0  0  0  0  0  0  0  0  0  0  0  0
  1  2  1  0  0  0  0
  2  3  1  0  0  0  0
  3  4  1  0  0  0  0
  4  5  2  0  0  0  0
  4  6  1  0  0  0  0
  6  7  1  0  0  0  0
  7  8  1  0  0  0  0
  7  9  1  0  0  0  0
  9 10  2  0  0  0  0
  9 11  4  0  0  0  0
 11 12  1  0  0  0  0
 12 13  1  0  0  0  0
  7 14  1  0  0  0  0
 14 15  1  0  0  0  0
 15 16  2  0  0  0  0
 15 17  2  0  0  0  0
 17 18  1  0  0  0  0
 15 19  1  0  0  0  0
 19 20  1  0  0  0  0
  1 21  1  0  0  0  0
  1 22  1  0  0  0  0
  1 23  1  0  0  0  0
  2 24  1  0  0  0  0
  2 25  1  0  0  0  0
  6 26  1  0  0  0  0
  6 27  1  0  0  0  0
 12 28  1  0  0  0  0
 12 29  1  0  0  0  0
 13 30  1  0  0  0  0
 13 31  1  0  0  0  0
 13 32  1  0  0  0  0
 18 33  1  0  0  0  0
 18 34  1  0  0  0  0
 18 35  1  0  0  0  0
 20 36  1  0  0  0  0
 20 37  1  0  0  0  0
 20 38  1  0  0  0  0
M  END
