 xtb: 6.7.1 (edcfbbe)
          04092507313D

 38 37  0     0  0            999 V2000
    3.9884   -3.7889   -1.4146 C   0  0  0  0  0  0  0  0  0  0  0  0
    2.8866   -2.9890   -2.0913 C   0  0  0  0  0  0  0  0  0  0  0  0
    2.6825   -1.7256   -1.4294 O   0  0  0  0  0  0  0  0  0  0  0  0
    1.8850   -1.6878   -0.3821 C   0  0  0  0  0  0  0  0  0  0  0  0
    1.2974   -2.6425    0.0749 O   0  0  0  0  0  0  0  0  0  0  0  0
    1.7467   -0.2744    0.1544 C   0  0  0  0  0  0  0  0  0  0  0  0
    0.8516    0.5266   -0.7922 C   0  0  0  0  0  0  0  0  0  0  0  0
    1.3677    0.6915   -1.7432 H   0  0  0  0  0  0  0  0  0  0  0  0
    0.4353    1.8746   -0.2264 C   0  0  0  0  0  0  0  0  0  0  0  0
   -0.6865    2.3218   -0.3633 O   0  0  0  0  0  0  0  0  0  0  0  0
    1.4177    2.4807    0.3767 O   0  0  0  0  0  0  0  0  0  0  0  0
    1.1400    3.7592    0.9887 C   0  0  0  0  0  0  0  0  0  0  0  0
    2.4364    4.2902    1.5652 C   0  0  0  0  0  0  0  0  0  0  0  0
   -0.6686   -0.3694   -1.2585 S   0  0  0  0  0  0  0  0  0  0  0  0
   -1.8759   -0.0024    0.4528 P   0  0  0  0  0  0  0  0  0  0  0  0
   -1.0551    0.5281    2.1487 S   0  0  0  0  0  0  0  0  0  0  0  0
   -3.0769    0.9324    0.0389 O   0  0  0  0  0  0  0  0  0  0  0  0
   -3.8448    0.7376   -1.1642 C   0  0  0  0  0  0  0  0  0  0  0  0
   -2.6475   -1.4079    0.5540 O   0  0  0  0  0  0  0  0  0  0  0  0
   -1.9939   -2.5732    1.0664 C   0  0  0  0  0  0  0  0  0  0  0  0
    3.6937   -4.0473   -0.4000 H   0  0  0  0  0  0  0  0  0  0  0  0
    4.1631   -4.7022   -1.9735 H   0  0  0  0  0  0  0  0  0  0  0  0
    4.9062   -3.2085   -1.3802 H   0  0  0  0  0  0  0  0  0  0  0  0
    1.9434   -3.5422   -2.0820 H   0  0  0  0  0  0  0  0  0  0  0  0
    3.1593   -2.7191   -3.1114 H   0  0  0  0  0  0  0  0  0  0  0  0
    2.7240    0.2043    0.2022 H   0  0  0  0  0  0  0  0  0  0  0  0
    1.3044   -0.3194    1.1512 H   0  0  0  0  0  0  0  0  0  0  0  0
    0.7250    4.4232    0.2246 H   0  0  0  0  0  0  0  0  0  0  0  0
    0.3805    3.6015    1.7610 H   0  0  0  0  0  0  0  0  0  0  0  0
    2.8182    3.6030    2.3137 H   0  0  0  0  0  0  0  0  0  0  0  0
    3.1757    4.4045    0.7785 H   0  0  0  0  0  0  0  0  0  0  0  0
    2.2514    5.2541    2.0269 H   0  0  0  0  0  0  0  0  0  0  0  0
   -4.3261   -0.2387   -1.1443 H   0  0  0  0  0  0  0  0  0  0  0  0
   -3.1940    0.8213   -2.0345 H   0  0  0  0  0  0  0  0  0  0  0  0
   -4.5813    1.5368   -1.1585 H   0  0  0  0  0  0  0  0  0  0  0  0
   -1.1043   -2.8097    0.4804 H   0  0  0  0  0  0  0  0  0  0  0  0
   -2.7250   -3.3735    0.9936 H   0  0  0  0  0  0  0  0  0  0  0  0
   -1.7052   -2.4086    2.1052 H   0  0  0  0  0  0  0  0  0  0  0  0
  1  2  1  0  0  0  0
  2  3  1  0  0  0  0
  3  4  1  0  0  0  0
  4  5  2  0  0  0  0
  4  6  1  0  0  0  0
  6  7  1  0  0  0  0
  7  8  1  0  0  0  0
  7  9  1  0  0  0  0
  9 10  2  0  0  0  0
  9 11  4  0  0  0  0
 11 12  1  0  0  0  0
 12 13  1  0  0  0  0
  7 14  1  0  0  0  0
 14 15  1  0  0  0  0
 15 16  2  0  0  0  0
 15 17  2  0  0  0  0
 17 18  1  0  0  0  0
 15 19  1  0  0  0  0
 19 20  1  0  0  0  0
  1 21  1  0  0  0  0
  1 22  1  0  0  0  0
  1 23  1  0  0  0  0
  2 24  1  0  0  0  0
  2 25  1  0  0  0  0
  6 26  1  0  0  0  0
  6 27  1  0  0  0  0
 12 28  1  0  0  0  0
 12 29  1  0  0  0  0
 13 30  1  0  0  0  0
 13 31  1  0  0  0  0
 13 32  1  0  0  0  0
 18 33  1  0  0  0  0
 18 34  1  0  0  0  0
 18 35  1  0  0  0  0
 20 36  1  0  0  0  0
 20 37  1  0  0  0  0
 20 38  1  0  0  0  0
M  END
