 xtb: 6.7.1 (edcfbbe)
          04092505213D

 41 40  0     0  0            999 V2000
    2.8978    2.2181    0.8469 C   0  0  0  0  0  0  0  0  0  0  0  0
    1.5887    1.8310    1.5031 C   0  0  0  0  0  0  0  0  0  0  0  0
    1.4537    0.4097    1.7245 O   0  0  0  0  0  0  0  0  0  0  0  0
    1.6697   -0.7556    0.6642 P   0  0  0  0  0  0  0  0  0  0  0  0
    0.8692   -2.4058    1.3430 S   0  0  0  0  0  0  0  0  0  0  0  0
    3.2506   -0.8497    0.4185 O   0  0  0  0  0  0  0  0  0  0  0  0
    4.1300   -1.3218    1.4567 C   0  0  0  0  0  0  0  0  0  0  0  0
    4.5115   -2.7692    1.2142 C   0  0  0  0  0  0  0  0  0  0  0  0
    1.2124   -0.1232   -1.2915 S   0  0  0  0  0  0  0  0  0  0  0  0
   -0.1050   -1.3029   -1.7009 C   0  0  0  0  0  0  0  0  0  0  0  0
   -1.7095   -0.5467   -2.1184 S   0  0  0  0  0  0  0  0  0  0  0  0
   -1.9919    0.7757   -0.4795 P   0  0  0  0  0  0  0  0  0  0  0  0
   -3.8330    1.3286   -0.1092 S   0  0  0  0  0  0  0  0  0  0  0  0
   -0.9518    1.9585   -0.6959 O   0  0  0  0  0  0  0  0  0  0  0  0
   -0.7567    2.6649   -1.9390 C   0  0  0  0  0  0  0  0  0  0  0  0
   -2.0546    3.1167   -2.5746 C   0  0  0  0  0  0  0  0  0  0  0  0
   -1.2399    0.0786    0.7461 O   0  0  0  0  0  0  0  0  0  0  0  0
   -2.0061   -0.5303    1.8028 C   0  0  0  0  0  0  0  0  0  0  0  0
   -2.6823   -1.8100    1.3541 C   0  0  0  0  0  0  0  0  0  0  0  0
    3.7395    1.8797    1.4466 H   0  0  0  0  0  0  0  0  0  0  0  0
    2.9717    1.7801   -0.1476 H   0  0  0  0  0  0  0  0  0  0  0  0
    2.9379    3.2996    0.7589 H   0  0  0  0  0  0  0  0  0  0  0  0
    0.7360    2.1565    0.9030 H   0  0  0  0  0  0  0  0  0  0  0  0
    1.5051    2.2481    2.5086 H   0  0  0  0  0  0  0  0  0  0  0  0
    5.0056   -0.6712    1.4053 H   0  0  0  0  0  0  0  0  0  0  0  0
    3.6416   -1.2021    2.4299 H   0  0  0  0  0  0  0  0  0  0  0  0
    5.2304   -3.0823    1.9647 H   0  0  0  0  0  0  0  0  0  0  0  0
    3.6320   -3.4063    1.2769 H   0  0  0  0  0  0  0  0  0  0  0  0
    4.9505   -2.8744    0.2262 H   0  0  0  0  0  0  0  0  0  0  0  0
   -0.2244   -1.9915   -0.8604 H   0  0  0  0  0  0  0  0  0  0  0  0
    0.1856   -1.8370   -2.6024 H   0  0  0  0  0  0  0  0  0  0  0  0
   -0.1356    3.5161   -1.6551 H   0  0  0  0  0  0  0  0  0  0  0  0
   -0.1962    2.0115   -2.6148 H   0  0  0  0  0  0  0  0  0  0  0  0
   -2.6324    3.7169   -1.8753 H   0  0  0  0  0  0  0  0  0  0  0  0
   -1.8338    3.7067   -3.4584 H   0  0  0  0  0  0  0  0  0  0  0  0
   -2.6545    2.2539   -2.8643 H   0  0  0  0  0  0  0  0  0  0  0  0
   -1.2730   -0.7201    2.5884 H   0  0  0  0  0  0  0  0  0  0  0  0
   -2.7486    0.1940    2.1500 H   0  0  0  0  0  0  0  0  0  0  0  0
   -1.9432   -2.5475    1.0501 H   0  0  0  0  0  0  0  0  0  0  0  0
   -3.2608   -2.2127    2.1791 H   0  0  0  0  0  0  0  0  0  0  0  0
   -3.3529   -1.6021    0.5204 H   0  0  0  0  0  0  0  0  0  0  0  0
  1  2  1  0  0  0  0
  2  3  1  0  0  0  0
  3  4  2  0  0  0  0
  4  5  2  0  0  0  0
  4  6  1  0  0  0  0
  6  7  1  0  0  0  0
  7  8  1  0  0  0  0
  4  9  1  0  0  0  0
  9 10  1  0  0  0  0
 10 11  1  0  0  0  0
 11 12  1  0  0  0  0
 12 13  2  0  0  0  0
 12 14  2  0  0  0  0
 14 15  1  0  0  0  0
 15 16  1  0  0  0  0
 12 17  1  0  0  0  0
 17 18  1  0  0  0  0
 18 19  1  0  0  0  0
  1 20  1  0  0  0  0
  1 21  1  0  0  0  0
  1 22  1  0  0  0  0
  2 23  1  0  0  0  0
  2 24  1  0  0  0  0
  7 25  1  0  0  0  0
  7 26  1  0  0  0  0
  8 27  1  0  0  0  0
  8 28  1  0  0  0  0
  8 29  1  0  0  0  0
 10 30  1  0  0  0  0
 10 31  1  0  0  0  0
 15 32  1  0  0  0  0
 15 33  1  0  0  0  0
 16 34  1  0  0  0  0
 16 35  1  0  0  0  0
 16 36  1  0  0  0  0
 18 37  1  0  0  0  0
 18 38  1  0  0  0  0
 19 39  1  0  0  0  0
 19 40  1  0  0  0  0
 19 41  1  0  0  0  0
M  END
