 xtb: 6.7.1 (edcfbbe)
          04032519503D

  8  7  0     0  0            999 V2000
   -1.7202   -0.3783   -0.0000 C   0  0  0  0  0  0  0  0  0  0  0  0
   -0.6249    0.6652    0.0000 C   0  0  0  0  0  0  0  0  0  0  0  0
    1.0020   -0.1166    0.0000 Cl  0  0  0  0  0  0  0  0  0  0  0  0
   -2.6837    0.1246   -0.0000 H   0  0  0  0  0  0  0  0  0  0  0  0
   -1.6516   -1.0076   -0.8832 H   0  0  0  0  0  0  0  0  0  0  0  0
   -1.6517   -1.0078    0.8831 H   0  0  0  0  0  0  0  0  0  0  0  0
   -0.6564    1.2861    0.8930 H   0  0  0  0  0  0  0  0  0  0  0  0
   -0.6562    1.2862   -0.8929 H   0  0  0  0  0  0  0  0  0  0  0  0
  1  2  1  0  0  0  0
  2  3  1  0  0  0  0
  1  4  1  0  0  0  0
  1  5  1  0  0  0  0
  1  6  1  0  0  0  0
  2  7  1  0  0  0  0
  2  8  1  0  0  0  0
M  END
