 xtb: 6.7.1 (edcfbbe)
          04092507313D

 38 37  0     0  0            999 V2000
    3.9877   -2.7946    0.3867 C   0  0  0  0  0  0  0  0  0  0  0  0
    2.4769   -2.7877    0.2220 C   0  0  0  0  0  0  0  0  0  0  0  0
    2.0812   -1.9455   -0.8778 O   0  0  0  0  0  0  0  0  0  0  0  0
    1.9693   -0.6527   -0.6803 C   0  0  0  0  0  0  0  0  0  0  0  0
    2.1497   -0.0840    0.3787 O   0  0  0  0  0  0  0  0  0  0  0  0
    1.5779    0.0899   -1.9442 C   0  0  0  0  0  0  0  0  0  0  0  0
    0.3582    0.9748   -1.6714 C   0  0  0  0  0  0  0  0  0  0  0  0
    0.2523    1.7191   -2.4637 H   0  0  0  0  0  0  0  0  0  0  0  0
    0.4813    1.6769   -0.3336 C   0  0  0  0  0  0  0  0  0  0  0  0
   -0.3013    1.4618    0.5804 O   0  0  0  0  0  0  0  0  0  0  0  0
    1.4357    2.5522   -0.3078 O   0  0  0  0  0  0  0  0  0  0  0  0
    1.7066    3.2300    0.9398 C   0  0  0  0  0  0  0  0  0  0  0  0
    2.6881    4.3486    0.6559 C   0  0  0  0  0  0  0  0  0  0  0  0
   -1.1999    0.0241   -1.6817 S   0  0  0  0  0  0  0  0  0  0  0  0
   -1.6660   -0.4453    0.3321 P   0  0  0  0  0  0  0  0  0  0  0  0
   -0.5576   -1.2549    1.7291 S   0  0  0  0  0  0  0  0  0  0  0  0
   -2.7148    0.5950    0.9528 O   0  0  0  0  0  0  0  0  0  0  0  0
   -3.7198    1.2304    0.1465 C   0  0  0  0  0  0  0  0  0  0  0  0
   -2.6549   -1.5914   -0.2890 O   0  0  0  0  0  0  0  0  0  0  0  0
   -3.3893   -2.4715    0.5576 C   0  0  0  0  0  0  0  0  0  0  0  0
    4.2553   -3.4934    1.1722 H   0  0  0  0  0  0  0  0  0  0  0  0
    4.4637   -3.0961   -0.5423 H   0  0  0  0  0  0  0  0  0  0  0  0
    4.3379   -1.8030    0.6642 H   0  0  0  0  0  0  0  0  0  0  0  0
    1.9800   -2.4319    1.1302 H   0  0  0  0  0  0  0  0  0  0  0  0
    2.0978   -3.7735   -0.0468 H   0  0  0  0  0  0  0  0  0  0  0  0
    1.3615   -0.6185   -2.7418 H   0  0  0  0  0  0  0  0  0  0  0  0
    2.4188    0.7270   -2.2261 H   0  0  0  0  0  0  0  0  0  0  0  0
    0.7605    3.6002    1.3458 H   0  0  0  0  0  0  0  0  0  0  0  0
    2.1143    2.4854    1.6306 H   0  0  0  0  0  0  0  0  0  0  0  0
    2.9155    4.8643    1.5826 H   0  0  0  0  0  0  0  0  0  0  0  0
    3.6041    3.9414    0.2395 H   0  0  0  0  0  0  0  0  0  0  0  0
    2.2598    5.0528   -0.0508 H   0  0  0  0  0  0  0  0  0  0  0  0
   -4.0635    0.5582   -0.6414 H   0  0  0  0  0  0  0  0  0  0  0  0
   -3.3078    2.1381   -0.2935 H   0  0  0  0  0  0  0  0  0  0  0  0
   -4.5315    1.4730    0.8285 H   0  0  0  0  0  0  0  0  0  0  0  0
   -3.8308   -3.2135   -0.1029 H   0  0  0  0  0  0  0  0  0  0  0  0
   -4.1645   -1.9261    1.0981 H   0  0  0  0  0  0  0  0  0  0  0  0
   -2.7168   -2.9476    1.2742 H   0  0  0  0  0  0  0  0  0  0  0  0
  1  2  1  0  0  0  0
  2  3  1  0  0  0  0
  3  4  4  0  0  0  0
  4  5  2  0  0  0  0
  4  6  1  0  0  0  0
  6  7  1  0  0  0  0
  7  8  1  0  0  0  0
  7  9  1  0  0  0  0
  9 10  2  0  0  0  0
  9 11  4  0  0  0  0
 11 12  1  0  0  0  0
 12 13  1  0  0  0  0
  7 14  1  0  0  0  0
 14 15  1  0  0  0  0
 15 16  2  0  0  0  0
 15 17  1  0  0  0  0
 17 18  1  0  0  0  0
 15 19  1  0  0  0  0
 19 20  1  0  0  0  0
  1 21  1  0  0  0  0
  1 22  1  0  0  0  0
  1 23  1  0  0  0  0
  2 24  1  0  0  0  0
  2 25  1  0  0  0  0
  6 26  1  0  0  0  0
  6 27  1  0  0  0  0
 12 28  1  0  0  0  0
 12 29  1  0  0  0  0
 13 30  1  0  0  0  0
 13 31  1  0  0  0  0
 13 32  1  0  0  0  0
 18 33  1  0  0  0  0
 18 34  1  0  0  0  0
 18 35  1  0  0  0  0
 20 36  1  0  0  0  0
 20 37  1  0  0  0  0
 20 38  1  0  0  0  0
M  END
