 xtb: 6.7.1 (edcfbbe)
          04092505213D

 41 40  0     0  0            999 V2000
    2.0854   -0.9145   -2.4179 C   0  0  0  0  0  0  0  0  0  0  0  0
    3.4002   -0.8304   -1.6696 C   0  0  0  0  0  0  0  0  0  0  0  0
    3.2831   -1.3103   -0.3207 O   0  0  0  0  0  0  0  0  0  0  0  0
    2.5401   -0.4914    0.8235 P   0  0  0  0  0  0  0  0  0  0  0  0
    2.8305    1.4522    0.7787 S   0  0  0  0  0  0  0  0  0  0  0  0
    3.0469   -1.2332    2.1287 O   0  0  0  0  0  0  0  0  0  0  0  0
    4.2543   -0.8477    2.8170 C   0  0  0  0  0  0  0  0  0  0  0  0
    5.4959   -1.1176    1.9928 C   0  0  0  0  0  0  0  0  0  0  0  0
    0.5458   -1.1988    0.8595 S   0  0  0  0  0  0  0  0  0  0  0  0
   -0.3194    0.3964    0.9308 C   0  0  0  0  0  0  0  0  0  0  0  0
   -0.7980    1.0396   -0.7048 S   0  0  0  0  0  0  0  0  0  0  0  0
   -2.8435    0.4485   -0.6431 P   0  0  0  0  0  0  0  0  0  0  0  0
   -3.9222    0.8757   -2.2185 S   0  0  0  0  0  0  0  0  0  0  0  0
   -3.3711    1.0278    0.7427 O   0  0  0  0  0  0  0  0  0  0  0  0
   -4.0031    2.3169    0.8248 C   0  0  0  0  0  0  0  0  0  0  0  0
   -3.0197    3.4527    0.6197 C   0  0  0  0  0  0  0  0  0  0  0  0
   -2.8152   -1.0721   -0.1897 O   0  0  0  0  0  0  0  0  0  0  0  0
   -2.8978   -2.1411   -1.1490 C   0  0  0  0  0  0  0  0  0  0  0  0
   -1.6359   -2.2597   -1.9795 C   0  0  0  0  0  0  0  0  0  0  0  0
    1.6817   -1.9219   -2.3581 H   0  0  0  0  0  0  0  0  0  0  0  0
    1.3649   -0.2156   -1.9936 H   0  0  0  0  0  0  0  0  0  0  0  0
    2.2467   -0.6547   -3.4592 H   0  0  0  0  0  0  0  0  0  0  0  0
    3.7622    0.2027   -1.6423 H   0  0  0  0  0  0  0  0  0  0  0  0
    4.1573   -1.4773   -2.1152 H   0  0  0  0  0  0  0  0  0  0  0  0
    4.1827    0.2152    3.0691 H   0  0  0  0  0  0  0  0  0  0  0  0
    4.2353   -1.4475    3.7279 H   0  0  0  0  0  0  0  0  0  0  0  0
    5.5152   -0.4626    1.1230 H   0  0  0  0  0  0  0  0  0  0  0  0
    6.3769   -0.9256    2.5974 H   0  0  0  0  0  0  0  0  0  0  0  0
    5.5053   -2.1507    1.6556 H   0  0  0  0  0  0  0  0  0  0  0  0
    0.3467    1.1378    1.3719 H   0  0  0  0  0  0  0  0  0  0  0  0
   -1.2157    0.2522    1.5281 H   0  0  0  0  0  0  0  0  0  0  0  0
   -4.8001    2.3614    0.0757 H   0  0  0  0  0  0  0  0  0  0  0  0
   -4.4355    2.3339    1.8264 H   0  0  0  0  0  0  0  0  0  0  0  0
   -2.1905    3.3733    1.3186 H   0  0  0  0  0  0  0  0  0  0  0  0
   -2.6273    3.4278   -0.3965 H   0  0  0  0  0  0  0  0  0  0  0  0
   -3.5288    4.3984    0.7759 H   0  0  0  0  0  0  0  0  0  0  0  0
   -3.0622   -3.0291   -0.5376 H   0  0  0  0  0  0  0  0  0  0  0  0
   -3.7659   -1.9634   -1.7921 H   0  0  0  0  0  0  0  0  0  0  0  0
   -0.7734   -2.3916   -1.3310 H   0  0  0  0  0  0  0  0  0  0  0  0
   -1.7229   -3.1130   -2.6442 H   0  0  0  0  0  0  0  0  0  0  0  0
   -1.4998   -1.3583   -2.5770 H   0  0  0  0  0  0  0  0  0  0  0  0
  1  2  1  0  0  0  0
  2  3  1  0  0  0  0
  3  4  2  0  0  0  0
  4  5  2  0  0  0  0
  4  6  2  0  0  0  0
  6  7  1  0  0  0  0
  7  8  1  0  0  0  0
  4  9  1  0  0  0  0
  9 10  1  0  0  0  0
 10 11  1  0  0  0  0
 11 12  1  0  0  0  0
 12 13  2  0  0  0  0
 12 14  2  0  0  0  0
 14 15  1  0  0  0  0
 15 16  1  0  0  0  0
 12 17  2  0  0  0  0
 17 18  1  0  0  0  0
 18 19  1  0  0  0  0
  1 20  1  0  0  0  0
  1 21  1  0  0  0  0
  1 22  1  0  0  0  0
  2 23  1  0  0  0  0
  2 24  1  0  0  0  0
  7 25  1  0  0  0  0
  7 26  1  0  0  0  0
  8 27  1  0  0  0  0
  8 28  1  0  0  0  0
  8 29  1  0  0  0  0
 10 30  1  0  0  0  0
 10 31  1  0  0  0  0
 15 32  1  0  0  0  0
 15 33  1  0  0  0  0
 16 34  1  0  0  0  0
 16 35  1  0  0  0  0
 16 36  1  0  0  0  0
 18 37  1  0  0  0  0
 18 38  1  0  0  0  0
 19 39  1  0  0  0  0
 19 40  1  0  0  0  0
 19 41  1  0  0  0  0
M  END
