 xtb: 6.7.1 (edcfbbe)
          04092505203D

 41 40  0     0  0            999 V2000
    3.2985   -1.6740    2.5077 C   0  0  0  0  0  0  0  0  0  0  0  0
    1.9202   -1.6890    1.8789 C   0  0  0  0  0  0  0  0  0  0  0  0
    1.6717   -0.4832    1.1286 O   0  0  0  0  0  0  0  0  0  0  0  0
    2.3938   -0.2089   -0.2747 P   0  0  0  0  0  0  0  0  0  0  0  0
    2.9533   -1.7949   -1.2661 S   0  0  0  0  0  0  0  0  0  0  0  0
    3.6206    0.7466    0.0269 O   0  0  0  0  0  0  0  0  0  0  0  0
    3.5556    1.9060    0.8923 C   0  0  0  0  0  0  0  0  0  0  0  0
    3.3196    3.1723    0.0941 C   0  0  0  0  0  0  0  0  0  0  0  0
    0.9358    1.0179   -1.1988 S   0  0  0  0  0  0  0  0  0  0  0  0
   -0.0564   -0.3419   -1.8680 C   0  0  0  0  0  0  0  0  0  0  0  0
   -0.9583   -1.2562   -0.6022 S   0  0  0  0  0  0  0  0  0  0  0  0
   -2.3511    0.3099   -0.1613 P   0  0  0  0  0  0  0  0  0  0  0  0
   -2.9225    1.3882   -1.6889 S   0  0  0  0  0  0  0  0  0  0  0  0
   -1.6710    1.2414    0.9115 O   0  0  0  0  0  0  0  0  0  0  0  0
   -1.2142    0.7769    2.2035 C   0  0  0  0  0  0  0  0  0  0  0  0
   -2.2100    1.1521    3.2814 C   0  0  0  0  0  0  0  0  0  0  0  0
   -3.4515   -0.4412    0.7035 O   0  0  0  0  0  0  0  0  0  0  0  0
   -4.1189   -1.6598    0.3243 C   0  0  0  0  0  0  0  0  0  0  0  0
   -4.7736   -1.5718   -1.0379 C   0  0  0  0  0  0  0  0  0  0  0  0
    4.0571   -1.6325    1.7262 H   0  0  0  0  0  0  0  0  0  0  0  0
    3.4124   -0.8107    3.1582 H   0  0  0  0  0  0  0  0  0  0  0  0
    3.4397   -2.5814    3.0861 H   0  0  0  0  0  0  0  0  0  0  0  0
    1.1305   -1.7047    2.6311 H   0  0  0  0  0  0  0  0  0  0  0  0
    1.8104   -2.5452    1.2065 H   0  0  0  0  0  0  0  0  0  0  0  0
    2.7687    1.7524    1.6344 H   0  0  0  0  0  0  0  0  0  0  0  0
    4.5305    1.9264    1.3826 H   0  0  0  0  0  0  0  0  0  0  0  0
    4.0738    3.2687   -0.6820 H   0  0  0  0  0  0  0  0  0  0  0  0
    2.3377    3.1551   -0.3754 H   0  0  0  0  0  0  0  0  0  0  0  0
    3.3791    4.0279    0.7596 H   0  0  0  0  0  0  0  0  0  0  0  0
    0.5994   -1.0540   -2.3695 H   0  0  0  0  0  0  0  0  0  0  0  0
   -0.7682    0.1083   -2.5613 H   0  0  0  0  0  0  0  0  0  0  0  0
   -1.0634   -0.3053    2.1592 H   0  0  0  0  0  0  0  0  0  0  0  0
   -0.2539    1.2743    2.3538 H   0  0  0  0  0  0  0  0  0  0  0  0
   -3.1612    0.6585    3.1001 H   0  0  0  0  0  0  0  0  0  0  0  0
   -1.8234    0.8463    4.2485 H   0  0  0  0  0  0  0  0  0  0  0  0
   -2.3691    2.2268    3.2803 H   0  0  0  0  0  0  0  0  0  0  0  0
   -3.3863   -2.4713    0.3490 H   0  0  0  0  0  0  0  0  0  0  0  0
   -4.8595   -1.8028    1.1131 H   0  0  0  0  0  0  0  0  0  0  0  0
   -5.3341   -2.4814   -1.2283 H   0  0  0  0  0  0  0  0  0  0  0  0
   -5.4454   -0.7178   -1.0821 H   0  0  0  0  0  0  0  0  0  0  0  0
   -4.0172   -1.4526   -1.8124 H   0  0  0  0  0  0  0  0  0  0  0  0
  1  2  1  0  0  0  0
  2  3  1  0  0  0  0
  3  4  1  0  0  0  0
  4  5  2  0  0  0  0
  4  6  2  0  0  0  0
  6  7  1  0  0  0  0
  7  8  1  0  0  0  0
  4  9  1  0  0  0  0
  9 10  1  0  0  0  0
 10 11  1  0  0  0  0
 11 12  1  0  0  0  0
 12 13  2  0  0  0  0
 12 14  2  0  0  0  0
 14 15  1  0  0  0  0
 15 16  1  0  0  0  0
 12 17  2  0  0  0  0
 17 18  1  0  0  0  0
 18 19  1  0  0  0  0
  1 20  1  0  0  0  0
  1 21  1  0  0  0  0
  1 22  1  0  0  0  0
  2 23  1  0  0  0  0
  2 24  1  0  0  0  0
  7 25  1  0  0  0  0
  7 26  1  0  0  0  0
  8 27  1  0  0  0  0
  8 28  1  0  0  0  0
  8 29  1  0  0  0  0
 10 30  1  0  0  0  0
 10 31  1  0  0  0  0
 15 32  1  0  0  0  0
 15 33  1  0  0  0  0
 16 34  1  0  0  0  0
 16 35  1  0  0  0  0
 16 36  1  0  0  0  0
 18 37  1  0  0  0  0
 18 38  1  0  0  0  0
 19 39  1  0  0  0  0
 19 40  1  0  0  0  0
 19 41  1  0  0  0  0
M  END
