 xtb: 6.7.1 (edcfbbe)
          04092505213D

 41 40  0     0  0            999 V2000
    4.4963    0.4422   -1.9830 C   0  0  0  0  0  0  0  0  0  0  0  0
    3.1050   -0.1545   -2.0201 C   0  0  0  0  0  0  0  0  0  0  0  0
    2.2479    0.4808   -1.0382 O   0  0  0  0  0  0  0  0  0  0  0  0
    1.9970   -0.0719    0.4096 P   0  0  0  0  0  0  0  0  0  0  0  0
    0.8678    1.1195    1.4713 S   0  0  0  0  0  0  0  0  0  0  0  0
    3.4589   -0.2804    0.9921 O   0  0  0  0  0  0  0  0  0  0  0  0
    3.6667   -0.7041    2.3561 C   0  0  0  0  0  0  0  0  0  0  0  0
    5.0992   -0.3830    2.7305 C   0  0  0  0  0  0  0  0  0  0  0  0
    1.3634   -2.0956    0.1838 S   0  0  0  0  0  0  0  0  0  0  0  0
   -0.2384   -1.8470   -0.6209 C   0  0  0  0  0  0  0  0  0  0  0  0
   -1.5299   -1.2355    0.5099 S   0  0  0  0  0  0  0  0  0  0  0  0
   -2.1907    0.4146   -0.6667 P   0  0  0  0  0  0  0  0  0  0  0  0
   -0.8731    1.2422   -1.8511 S   0  0  0  0  0  0  0  0  0  0  0  0
   -2.9437    1.3494    0.3698 O   0  0  0  0  0  0  0  0  0  0  0  0
   -2.3071    2.2934    1.2500 C   0  0  0  0  0  0  0  0  0  0  0  0
   -3.3590    3.2926    1.6852 C   0  0  0  0  0  0  0  0  0  0  0  0
   -3.3956   -0.1380   -1.5176 O   0  0  0  0  0  0  0  0  0  0  0  0
   -4.5384   -0.8238   -0.9391 C   0  0  0  0  0  0  0  0  0  0  0  0
   -4.5149   -2.2874   -1.3313 C   0  0  0  0  0  0  0  0  0  0  0  0
    4.9657    0.2431   -1.0234 H   0  0  0  0  0  0  0  0  0  0  0  0
    5.0921   -0.0007   -2.7750 H   0  0  0  0  0  0  0  0  0  0  0  0
    4.4430    1.5173   -2.1317 H   0  0  0  0  0  0  0  0  0  0  0  0
    3.1305   -1.2306   -1.8263 H   0  0  0  0  0  0  0  0  0  0  0  0
    2.6089    0.0429   -2.9726 H   0  0  0  0  0  0  0  0  0  0  0  0
    2.9548   -0.1737    2.9970 H   0  0  0  0  0  0  0  0  0  0  0  0
    3.4683   -1.7776    2.4105 H   0  0  0  0  0  0  0  0  0  0  0  0
    5.2772   -0.6979    3.7533 H   0  0  0  0  0  0  0  0  0  0  0  0
    5.7837   -0.9062    2.0691 H   0  0  0  0  0  0  0  0  0  0  0  0
    5.2757    0.6859    2.6489 H   0  0  0  0  0  0  0  0  0  0  0  0
   -0.5323   -2.8262   -0.9892 H   0  0  0  0  0  0  0  0  0  0  0  0
   -0.1311   -1.1257   -1.4356 H   0  0  0  0  0  0  0  0  0  0  0  0
   -1.8889    1.7489    2.1008 H   0  0  0  0  0  0  0  0  0  0  0  0
   -1.4840    2.7782    0.7156 H   0  0  0  0  0  0  0  0  0  0  0  0
   -3.7575    3.8149    0.8198 H   0  0  0  0  0  0  0  0  0  0  0  0
   -4.1693    2.7793    2.1943 H   0  0  0  0  0  0  0  0  0  0  0  0
   -2.9047    4.0095    2.3609 H   0  0  0  0  0  0  0  0  0  0  0  0
   -4.5205   -0.6999    0.1455 H   0  0  0  0  0  0  0  0  0  0  0  0
   -5.4092   -0.3133   -1.3525 H   0  0  0  0  0  0  0  0  0  0  0  0
   -3.6712   -2.7920   -0.8672 H   0  0  0  0  0  0  0  0  0  0  0  0
   -5.4348   -2.7573   -0.9985 H   0  0  0  0  0  0  0  0  0  0  0  0
   -4.4341   -2.3804   -2.4107 H   0  0  0  0  0  0  0  0  0  0  0  0
  1  2  1  0  0  0  0
  2  3  1  0  0  0  0
  3  4  2  0  0  0  0
  4  5  2  0  0  0  0
  4  6  2  0  0  0  0
  6  7  1  0  0  0  0
  7  8  1  0  0  0  0
  4  9  1  0  0  0  0
  9 10  1  0  0  0  0
 10 11  1  0  0  0  0
 11 12  1  0  0  0  0
 12 13  2  0  0  0  0
 12 14  2  0  0  0  0
 14 15  1  0  0  0  0
 15 16  1  0  0  0  0
 12 17  2  0  0  0  0
 17 18  1  0  0  0  0
 18 19  1  0  0  0  0
  1 20  1  0  0  0  0
  1 21  1  0  0  0  0
  1 22  1  0  0  0  0
  2 23  1  0  0  0  0
  2 24  1  0  0  0  0
  7 25  1  0  0  0  0
  7 26  1  0  0  0  0
  8 27  1  0  0  0  0
  8 28  1  0  0  0  0
  8 29  1  0  0  0  0
 10 30  1  0  0  0  0
 10 31  1  0  0  0  0
 15 32  1  0  0  0  0
 15 33  1  0  0  0  0
 16 34  1  0  0  0  0
 16 35  1  0  0  0  0
 16 36  1  0  0  0  0
 18 37  1  0  0  0  0
 18 38  1  0  0  0  0
 19 39  1  0  0  0  0
 19 40  1  0  0  0  0
 19 41  1  0  0  0  0
M  END
