 xtb: 6.7.1 (edcfbbe)
          04092505203D

 41 40  0     0  0            999 V2000
    4.2483    2.0180   -1.0482 C   0  0  0  0  0  0  0  0  0  0  0  0
    4.6437    0.6007   -0.6886 C   0  0  0  0  0  0  0  0  0  0  0  0
    3.5181   -0.2981   -0.6749 O   0  0  0  0  0  0  0  0  0  0  0  0
    2.3349   -0.1744    0.3795 P   0  0  0  0  0  0  0  0  0  0  0  0
    2.8497    0.2872    2.2073 S   0  0  0  0  0  0  0  0  0  0  0  0
    1.6722   -1.6025    0.2952 O   0  0  0  0  0  0  0  0  0  0  0  0
    1.4417   -2.3016   -0.9552 C   0  0  0  0  0  0  0  0  0  0  0  0
    0.6362   -3.5431   -0.6403 C   0  0  0  0  0  0  0  0  0  0  0  0
    0.9630    1.1674   -0.5514 S   0  0  0  0  0  0  0  0  0  0  0  0
    0.0321    1.5712    0.9456 C   0  0  0  0  0  0  0  0  0  0  0  0
   -1.0180    0.2146    1.5394 S   0  0  0  0  0  0  0  0  0  0  0  0
   -2.3380    0.0777   -0.1186 P   0  0  0  0  0  0  0  0  0  0  0  0
   -1.8034   -0.8874   -1.7417 S   0  0  0  0  0  0  0  0  0  0  0  0
   -2.7202    1.6002   -0.3030 O   0  0  0  0  0  0  0  0  0  0  0  0
   -2.9677    2.2200   -1.5860 C   0  0  0  0  0  0  0  0  0  0  0  0
   -1.8937    3.2487   -1.8794 C   0  0  0  0  0  0  0  0  0  0  0  0
   -3.6725   -0.4976    0.5304 O   0  0  0  0  0  0  0  0  0  0  0  0
   -3.9330   -1.9068    0.6260 C   0  0  0  0  0  0  0  0  0  0  0  0
   -3.1088   -2.5545    1.7205 C   0  0  0  0  0  0  0  0  0  0  0  0
    3.6510    2.4532   -0.2486 H   0  0  0  0  0  0  0  0  0  0  0  0
    5.1447    2.6150   -1.1813 H   0  0  0  0  0  0  0  0  0  0  0  0
    3.6676    2.0279   -1.9673 H   0  0  0  0  0  0  0  0  0  0  0  0
    5.1178    0.5713    0.2971 H   0  0  0  0  0  0  0  0  0  0  0  0
    5.3096    0.1660   -1.4355 H   0  0  0  0  0  0  0  0  0  0  0  0
    0.8978   -1.6396   -1.6357 H   0  0  0  0  0  0  0  0  0  0  0  0
    2.4125   -2.5474   -1.3885 H   0  0  0  0  0  0  0  0  0  0  0  0
    0.5063   -4.1198   -1.5500 H   0  0  0  0  0  0  0  0  0  0  0  0
    1.1490   -4.1431    0.1058 H   0  0  0  0  0  0  0  0  0  0  0  0
   -0.3431   -3.2651   -0.2592 H   0  0  0  0  0  0  0  0  0  0  0  0
   -0.5828    2.4388    0.7221 H   0  0  0  0  0  0  0  0  0  0  0  0
    0.7328    1.7759    1.7568 H   0  0  0  0  0  0  0  0  0  0  0  0
   -2.9871    1.4455   -2.3592 H   0  0  0  0  0  0  0  0  0  0  0  0
   -3.9533    2.6804   -1.5023 H   0  0  0  0  0  0  0  0  0  0  0  0
   -0.9188    2.7676   -1.9458 H   0  0  0  0  0  0  0  0  0  0  0  0
   -2.1152    3.7296   -2.8266 H   0  0  0  0  0  0  0  0  0  0  0  0
   -1.8666    4.0012   -1.0961 H   0  0  0  0  0  0  0  0  0  0  0  0
   -5.0012   -1.9679    0.8381 H   0  0  0  0  0  0  0  0  0  0  0  0
   -3.7205   -2.3659   -0.3459 H   0  0  0  0  0  0  0  0  0  0  0  0
   -3.2929   -2.0639    2.6727 H   0  0  0  0  0  0  0  0  0  0  0  0
   -3.3696   -3.6052    1.7979 H   0  0  0  0  0  0  0  0  0  0  0  0
   -2.0465   -2.4679    1.4906 H   0  0  0  0  0  0  0  0  0  0  0  0
  1  2  1  0  0  0  0
  2  3  1  0  0  0  0
  3  4  2  0  0  0  0
  4  5  2  0  0  0  0
  4  6  2  0  0  0  0
  6  7  1  0  0  0  0
  7  8  1  0  0  0  0
  4  9  1  0  0  0  0
  9 10  1  0  0  0  0
 10 11  1  0  0  0  0
 11 12  1  0  0  0  0
 12 13  2  0  0  0  0
 12 14  2  0  0  0  0
 14 15  1  0  0  0  0
 15 16  1  0  0  0  0
 12 17  2  0  0  0  0
 17 18  1  0  0  0  0
 18 19  1  0  0  0  0
  1 20  1  0  0  0  0
  1 21  1  0  0  0  0
  1 22  1  0  0  0  0
  2 23  1  0  0  0  0
  2 24  1  0  0  0  0
  7 25  1  0  0  0  0
  7 26  1  0  0  0  0
  8 27  1  0  0  0  0
  8 28  1  0  0  0  0
  8 29  1  0  0  0  0
 10 30  1  0  0  0  0
 10 31  1  0  0  0  0
 15 32  1  0  0  0  0
 15 33  1  0  0  0  0
 16 34  1  0  0  0  0
 16 35  1  0  0  0  0
 16 36  1  0  0  0  0
 18 37  1  0  0  0  0
 18 38  1  0  0  0  0
 19 39  1  0  0  0  0
 19 40  1  0  0  0  0
 19 41  1  0  0  0  0
M  END
