 xtb: 6.7.1 (edcfbbe)
          04092505213D

 41 40  0     0  0            999 V2000
    4.3191   -0.7373   -2.9742 C   0  0  0  0  0  0  0  0  0  0  0  0
    4.4108   -0.1581   -1.5759 C   0  0  0  0  0  0  0  0  0  0  0  0
    3.4225   -0.7585   -0.7155 O   0  0  0  0  0  0  0  0  0  0  0  0
    2.0689    0.0197   -0.3466 P   0  0  0  0  0  0  0  0  0  0  0  0
    1.1098    0.6841   -1.9183 S   0  0  0  0  0  0  0  0  0  0  0  0
    2.4940    1.2250    0.5907 O   0  0  0  0  0  0  0  0  0  0  0  0
    2.8051    1.1455    2.0006 C   0  0  0  0  0  0  0  0  0  0  0  0
    3.9356    0.1842    2.3011 C   0  0  0  0  0  0  0  0  0  0  0  0
    1.2138   -1.5170    0.8029 S   0  0  0  0  0  0  0  0  0  0  0  0
   -0.1556   -1.9806   -0.3063 C   0  0  0  0  0  0  0  0  0  0  0  0
   -1.7966   -1.7574    0.4217 S   0  0  0  0  0  0  0  0  0  0  0  0
   -1.9786    0.3623    0.2940 P   0  0  0  0  0  0  0  0  0  0  0  0
   -0.6399    1.3766    1.3069 S   0  0  0  0  0  0  0  0  0  0  0  0
   -3.4713    0.5945    0.7733 O   0  0  0  0  0  0  0  0  0  0  0  0
   -3.8461    0.4269    2.1577 C   0  0  0  0  0  0  0  0  0  0  0  0
   -5.1880    1.1000    2.3599 C   0  0  0  0  0  0  0  0  0  0  0  0
   -2.0219    0.7806   -1.2195 O   0  0  0  0  0  0  0  0  0  0  0  0
   -3.1567    0.6577   -2.1146 C   0  0  0  0  0  0  0  0  0  0  0  0
   -3.5205   -0.7830   -2.4048 C   0  0  0  0  0  0  0  0  0  0  0  0
    3.3594   -0.4854   -3.4203 H   0  0  0  0  0  0  0  0  0  0  0  0
    5.1152   -0.3258   -3.5864 H   0  0  0  0  0  0  0  0  0  0  0  0
    4.4150   -1.8184   -2.9325 H   0  0  0  0  0  0  0  0  0  0  0  0
    4.2676    0.9277   -1.5893 H   0  0  0  0  0  0  0  0  0  0  0  0
    5.3707   -0.3942   -1.1121 H   0  0  0  0  0  0  0  0  0  0  0  0
    3.0668    2.1741    2.2538 H   0  0  0  0  0  0  0  0  0  0  0  0
    1.8900    0.8663    2.5302 H   0  0  0  0  0  0  0  0  0  0  0  0
    4.1456    0.2137    3.3656 H   0  0  0  0  0  0  0  0  0  0  0  0
    3.6540   -0.8311    2.0252 H   0  0  0  0  0  0  0  0  0  0  0  0
    4.8298    0.4673    1.7510 H   0  0  0  0  0  0  0  0  0  0  0  0
   -0.0688   -3.0438   -0.5130 H   0  0  0  0  0  0  0  0  0  0  0  0
   -0.0752   -1.3843   -1.2198 H   0  0  0  0  0  0  0  0  0  0  0  0
   -3.8985   -0.6447    2.3659 H   0  0  0  0  0  0  0  0  0  0  0  0
   -3.0695    0.8774    2.7843 H   0  0  0  0  0  0  0  0  0  0  0  0
   -5.4937    0.9771    3.3936 H   0  0  0  0  0  0  0  0  0  0  0  0
   -5.1128    2.1598    2.1326 H   0  0  0  0  0  0  0  0  0  0  0  0
   -5.9320    0.6507    1.7087 H   0  0  0  0  0  0  0  0  0  0  0  0
   -3.9967    1.1956   -1.6727 H   0  0  0  0  0  0  0  0  0  0  0  0
   -2.8107    1.1734   -3.0122 H   0  0  0  0  0  0  0  0  0  0  0  0
   -4.2972   -0.7996   -3.1631 H   0  0  0  0  0  0  0  0  0  0  0  0
   -2.6533   -1.3247   -2.7746 H   0  0  0  0  0  0  0  0  0  0  0  0
   -3.8904   -1.2733   -1.5073 H   0  0  0  0  0  0  0  0  0  0  0  0
  1  2  1  0  0  0  0
  2  3  1  0  0  0  0
  3  4  1  0  0  0  0
  4  5  2  0  0  0  0
  4  6  2  0  0  0  0
  6  7  1  0  0  0  0
  7  8  1  0  0  0  0
  4  9  1  0  0  0  0
  9 10  1  0  0  0  0
 10 11  1  0  0  0  0
 11 12  1  0  0  0  0
 12 13  2  0  0  0  0
 12 14  2  0  0  0  0
 14 15  1  0  0  0  0
 15 16  1  0  0  0  0
 12 17  2  0  0  0  0
 17 18  1  0  0  0  0
 18 19  1  0  0  0  0
  1 20  1  0  0  0  0
  1 21  1  0  0  0  0
  1 22  1  0  0  0  0
  2 23  1  0  0  0  0
  2 24  1  0  0  0  0
  7 25  1  0  0  0  0
  7 26  1  0  0  0  0
  8 27  1  0  0  0  0
  8 28  1  0  0  0  0
  8 29  1  0  0  0  0
 10 30  1  0  0  0  0
 10 31  1  0  0  0  0
 15 32  1  0  0  0  0
 15 33  1  0  0  0  0
 16 34  1  0  0  0  0
 16 35  1  0  0  0  0
 16 36  1  0  0  0  0
 18 37  1  0  0  0  0
 18 38  1  0  0  0  0
 19 39  1  0  0  0  0
 19 40  1  0  0  0  0
 19 41  1  0  0  0  0
M  END
