 xtb: 6.7.1 (edcfbbe)
          04092507313D

 38 37  0     0  0            999 V2000
    3.3931   -1.2363    1.9522 C   0  0  0  0  0  0  0  0  0  0  0  0
    2.7845   -2.0919    0.8535 C   0  0  0  0  0  0  0  0  0  0  0  0
    2.6289   -1.3333   -0.3652 O   0  0  0  0  0  0  0  0  0  0  0  0
    1.5964   -0.5513   -0.4999 C   0  0  0  0  0  0  0  0  0  0  0  0
    0.7317   -0.3873    0.3551 O   0  0  0  0  0  0  0  0  0  0  0  0
    1.5380    0.1698   -1.8197 C   0  0  0  0  0  0  0  0  0  0  0  0
    0.3477    1.1161   -1.7755 C   0  0  0  0  0  0  0  0  0  0  0  0
    0.3153    1.7540   -2.6620 H   0  0  0  0  0  0  0  0  0  0  0  0
    0.3665    1.9954   -0.5330 C   0  0  0  0  0  0  0  0  0  0  0  0
   -0.6242    2.3584    0.0574 O   0  0  0  0  0  0  0  0  0  0  0  0
    1.5974    2.3412   -0.2159 O   0  0  0  0  0  0  0  0  0  0  0  0
    1.7983    3.2089    0.9193 C   0  0  0  0  0  0  0  0  0  0  0  0
    3.0616    4.0147    0.6858 C   0  0  0  0  0  0  0  0  0  0  0  0
   -1.2572    0.2340   -1.8550 S   0  0  0  0  0  0  0  0  0  0  0  0
   -1.6352   -0.8193   -0.0608 P   0  0  0  0  0  0  0  0  0  0  0  0
   -1.0024   -2.6499    0.3199 S   0  0  0  0  0  0  0  0  0  0  0  0
   -1.8351    0.0938    1.2343 O   0  0  0  0  0  0  0  0  0  0  0  0
   -1.0392    0.0842    2.4123 C   0  0  0  0  0  0  0  0  0  0  0  0
   -3.1699   -0.8808   -0.5486 O   0  0  0  0  0  0  0  0  0  0  0  0
   -4.1500   -1.6689    0.1271 C   0  0  0  0  0  0  0  0  0  0  0  0
    4.3416   -0.8219    1.6220 H   0  0  0  0  0  0  0  0  0  0  0  0
    2.7182   -0.4236    2.2125 H   0  0  0  0  0  0  0  0  0  0  0  0
    3.5558   -1.8499    2.8319 H   0  0  0  0  0  0  0  0  0  0  0  0
    1.8072   -2.4837    1.1497 H   0  0  0  0  0  0  0  0  0  0  0  0
    3.4451   -2.9112    0.5720 H   0  0  0  0  0  0  0  0  0  0  0  0
    1.4238   -0.5555   -2.6266 H   0  0  0  0  0  0  0  0  0  0  0  0
    2.4698    0.7161   -1.9717 H   0  0  0  0  0  0  0  0  0  0  0  0
    0.9164    3.8471    1.0290 H   0  0  0  0  0  0  0  0  0  0  0  0
    1.8866    2.5758    1.8080 H   0  0  0  0  0  0  0  0  0  0  0  0
    2.9578    4.6242   -0.2069 H   0  0  0  0  0  0  0  0  0  0  0  0
    3.2332    4.6605    1.5405 H   0  0  0  0  0  0  0  0  0  0  0  0
    3.9112    3.3504    0.5628 H   0  0  0  0  0  0  0  0  0  0  0  0
   -1.7202    0.2984    3.2333 H   0  0  0  0  0  0  0  0  0  0  0  0
   -0.2769    0.8579    2.3374 H   0  0  0  0  0  0  0  0  0  0  0  0
   -0.5709   -0.8929    2.5434 H   0  0  0  0  0  0  0  0  0  0  0  0
   -3.7362   -2.6480    0.3815 H   0  0  0  0  0  0  0  0  0  0  0  0
   -4.9758   -1.7773   -0.5717 H   0  0  0  0  0  0  0  0  0  0  0  0
   -4.4777   -1.1591    1.0329 H   0  0  0  0  0  0  0  0  0  0  0  0
  1  2  1  0  0  0  0
  2  3  1  0  0  0  0
  3  4  4  0  0  0  0
  4  5  2  0  0  0  0
  4  6  1  0  0  0  0
  6  7  1  0  0  0  0
  7  8  1  0  0  0  0
  7  9  1  0  0  0  0
  9 10  2  0  0  0  0
  9 11  1  0  0  0  0
 11 12  1  0  0  0  0
 12 13  1  0  0  0  0
  7 14  1  0  0  0  0
 14 15  1  0  0  0  0
 15 16  2  0  0  0  0
 15 17  2  0  0  0  0
 17 18  1  0  0  0  0
 15 19  1  0  0  0  0
 19 20  1  0  0  0  0
  1 21  1  0  0  0  0
  1 22  1  0  0  0  0
  1 23  1  0  0  0  0
  2 24  1  0  0  0  0
  2 25  1  0  0  0  0
  6 26  1  0  0  0  0
  6 27  1  0  0  0  0
 12 28  1  0  0  0  0
 12 29  1  0  0  0  0
 13 30  1  0  0  0  0
 13 31  1  0  0  0  0
 13 32  1  0  0  0  0
 18 33  1  0  0  0  0
 18 34  1  0  0  0  0
 18 35  1  0  0  0  0
 20 36  1  0  0  0  0
 20 37  1  0  0  0  0
 20 38  1  0  0  0  0
M  END
