 xtb: 6.7.1 (edcfbbe)
          04092505213D

 41 40  0     0  0            999 V2000
    3.0161    1.7027   -1.5478 C   0  0  0  0  0  0  0  0  0  0  0  0
    1.8051    1.8703   -0.6574 C   0  0  0  0  0  0  0  0  0  0  0  0
    1.9635    1.2493    0.6393 O   0  0  0  0  0  0  0  0  0  0  0  0
    2.3067   -0.2606    0.9434 P   0  0  0  0  0  0  0  0  0  0  0  0
    1.9603   -0.7032    2.8163 S   0  0  0  0  0  0  0  0  0  0  0  0
    3.8301   -0.3722    0.5064 O   0  0  0  0  0  0  0  0  0  0  0  0
    4.6966   -1.4143    0.9875 C   0  0  0  0  0  0  0  0  0  0  0  0
    4.2930   -2.7818    0.4750 C   0  0  0  0  0  0  0  0  0  0  0  0
    1.2544   -1.4133   -0.5126 S   0  0  0  0  0  0  0  0  0  0  0  0
   -0.2474   -1.6506    0.4738 C   0  0  0  0  0  0  0  0  0  0  0  0
   -1.0628   -0.1001    0.9444 S   0  0  0  0  0  0  0  0  0  0  0  0
   -2.1726    0.1839   -0.8682 P   0  0  0  0  0  0  0  0  0  0  0  0
   -1.1727    0.1738   -2.5461 S   0  0  0  0  0  0  0  0  0  0  0  0
   -2.9592    1.5250   -0.5494 O   0  0  0  0  0  0  0  0  0  0  0  0
   -2.2905    2.8030   -0.5868 C   0  0  0  0  0  0  0  0  0  0  0  0
   -3.3532    3.8826   -0.6106 C   0  0  0  0  0  0  0  0  0  0  0  0
   -3.2865   -0.9270   -0.8446 O   0  0  0  0  0  0  0  0  0  0  0  0
   -4.2698   -1.0639    0.2136 C   0  0  0  0  0  0  0  0  0  0  0  0
   -5.5459   -0.3298   -0.1416 C   0  0  0  0  0  0  0  0  0  0  0  0
    3.9108    2.0496   -1.0378 H   0  0  0  0  0  0  0  0  0  0  0  0
    3.1428    0.6558   -1.8162 H   0  0  0  0  0  0  0  0  0  0  0  0
    2.8662    2.2802   -2.4549 H   0  0  0  0  0  0  0  0  0  0  0  0
    0.9163    1.4504   -1.1404 H   0  0  0  0  0  0  0  0  0  0  0  0
    1.6269    2.9179   -0.4095 H   0  0  0  0  0  0  0  0  0  0  0  0
    5.6817   -1.1215    0.6217 H   0  0  0  0  0  0  0  0  0  0  0  0
    4.6840   -1.3956    2.0818 H   0  0  0  0  0  0  0  0  0  0  0  0
    5.0483   -3.5077    0.7583 H   0  0  0  0  0  0  0  0  0  0  0  0
    3.3402   -3.0763    0.9125 H   0  0  0  0  0  0  0  0  0  0  0  0
    4.1931   -2.7679   -0.6075 H   0  0  0  0  0  0  0  0  0  0  0  0
    0.0140   -2.1449    1.4089 H   0  0  0  0  0  0  0  0  0  0  0  0
   -0.9222   -2.2578   -0.1261 H   0  0  0  0  0  0  0  0  0  0  0  0
   -1.6573    2.8828    0.3014 H   0  0  0  0  0  0  0  0  0  0  0  0
   -1.6612    2.8389   -1.4823 H   0  0  0  0  0  0  0  0  0  0  0  0
   -2.8715    4.8545   -0.6342 H   0  0  0  0  0  0  0  0  0  0  0  0
   -3.9778    3.7711   -1.4923 H   0  0  0  0  0  0  0  0  0  0  0  0
   -3.9761    3.8128    0.2764 H   0  0  0  0  0  0  0  0  0  0  0  0
   -4.4381   -2.1397    0.2885 H   0  0  0  0  0  0  0  0  0  0  0  0
   -3.8411   -0.6881    1.1467 H   0  0  0  0  0  0  0  0  0  0  0  0
   -5.3594    0.7381   -0.2134 H   0  0  0  0  0  0  0  0  0  0  0  0
   -5.9258   -0.6847   -1.0957 H   0  0  0  0  0  0  0  0  0  0  0  0
   -6.2867   -0.5137    0.6303 H   0  0  0  0  0  0  0  0  0  0  0  0
  1  2  1  0  0  0  0
  2  3  1  0  0  0  0
  3  4  2  0  0  0  0
  4  5  2  0  0  0  0
  4  6  2  0  0  0  0
  6  7  1  0  0  0  0
  7  8  1  0  0  0  0
  4  9  1  0  0  0  0
  9 10  1  0  0  0  0
 10 11  1  0  0  0  0
 11 12  1  0  0  0  0
 12 13  2  0  0  0  0
 12 14  2  0  0  0  0
 14 15  1  0  0  0  0
 15 16  1  0  0  0  0
 12 17  2  0  0  0  0
 17 18  1  0  0  0  0
 18 19  1  0  0  0  0
  1 20  1  0  0  0  0
  1 21  1  0  0  0  0
  1 22  1  0  0  0  0
  2 23  1  0  0  0  0
  2 24  1  0  0  0  0
  7 25  1  0  0  0  0
  7 26  1  0  0  0  0
  8 27  1  0  0  0  0
  8 28  1  0  0  0  0
  8 29  1  0  0  0  0
 10 30  1  0  0  0  0
 10 31  1  0  0  0  0
 15 32  1  0  0  0  0
 15 33  1  0  0  0  0
 16 34  1  0  0  0  0
 16 35  1  0  0  0  0
 16 36  1  0  0  0  0
 18 37  1  0  0  0  0
 18 38  1  0  0  0  0
 19 39  1  0  0  0  0
 19 40  1  0  0  0  0
 19 41  1  0  0  0  0
M  END
