 xtb: 6.7.1 (edcfbbe)
          04092505203D

 41 40  0     0  0            999 V2000
    4.1154    1.5404   -2.2189 C   0  0  0  0  0  0  0  0  0  0  0  0
    4.3360    0.7901   -0.9207 C   0  0  0  0  0  0  0  0  0  0  0  0
    3.3700    1.2125    0.0751 O   0  0  0  0  0  0  0  0  0  0  0  0
    2.1530    0.3212    0.5573 P   0  0  0  0  0  0  0  0  0  0  0  0
    1.2275    1.2534    2.0023 S   0  0  0  0  0  0  0  0  0  0  0  0
    2.7721   -1.1030    0.9347 O   0  0  0  0  0  0  0  0  0  0  0  0
    2.7664   -1.6771    2.2587 C   0  0  0  0  0  0  0  0  0  0  0  0
    1.9783   -2.9717    2.2670 C   0  0  0  0  0  0  0  0  0  0  0  0
    1.1990   -0.1567   -1.2777 S   0  0  0  0  0  0  0  0  0  0  0  0
    0.2860   -1.6469   -0.7896 C   0  0  0  0  0  0  0  0  0  0  0  0
   -0.8657   -1.3808    0.5896 S   0  0  0  0  0  0  0  0  0  0  0  0
   -2.0960    0.0172   -0.3872 P   0  0  0  0  0  0  0  0  0  0  0  0
   -2.4417   -0.2653   -2.2991 S   0  0  0  0  0  0  0  0  0  0  0  0
   -1.3307    1.3496   -0.0033 O   0  0  0  0  0  0  0  0  0  0  0  0
   -1.4736    2.5743   -0.7456 C   0  0  0  0  0  0  0  0  0  0  0  0
   -2.8626    3.1594   -0.6058 C   0  0  0  0  0  0  0  0  0  0  0  0
   -3.3918    0.1068    0.5266 O   0  0  0  0  0  0  0  0  0  0  0  0
   -4.5441   -0.7283    0.3126 C   0  0  0  0  0  0  0  0  0  0  0  0
   -4.2624   -2.1826    0.6310 C   0  0  0  0  0  0  0  0  0  0  0  0
    3.1441    1.2917   -2.6416 H   0  0  0  0  0  0  0  0  0  0  0  0
    4.1550    2.6112   -2.0400 H   0  0  0  0  0  0  0  0  0  0  0  0
    4.8919    1.2648   -2.9253 H   0  0  0  0  0  0  0  0  0  0  0  0
    5.3067    1.0325   -0.4848 H   0  0  0  0  0  0  0  0  0  0  0  0
    4.2543   -0.2895   -1.0638 H   0  0  0  0  0  0  0  0  0  0  0  0
    3.8152   -1.8500    2.5077 H   0  0  0  0  0  0  0  0  0  0  0  0
    2.3401   -0.9495    2.9571 H   0  0  0  0  0  0  0  0  0  0  0  0
    2.3778   -3.6605    1.5277 H   0  0  0  0  0  0  0  0  0  0  0  0
    2.0578   -3.4222    3.2510 H   0  0  0  0  0  0  0  0  0  0  0  0
    0.9284   -2.7801    2.0521 H   0  0  0  0  0  0  0  0  0  0  0  0
    0.9831   -2.4198   -0.4768 H   0  0  0  0  0  0  0  0  0  0  0  0
   -0.2720   -1.9488   -1.6762 H   0  0  0  0  0  0  0  0  0  0  0  0
   -0.7106    3.2267   -0.3164 H   0  0  0  0  0  0  0  0  0  0  0  0
   -1.2386    2.3694   -1.7959 H   0  0  0  0  0  0  0  0  0  0  0  0
   -2.8964    4.1270   -1.0965 H   0  0  0  0  0  0  0  0  0  0  0  0
   -3.5910    2.4976   -1.0738 H   0  0  0  0  0  0  0  0  0  0  0  0
   -3.1145    3.2748    0.4454 H   0  0  0  0  0  0  0  0  0  0  0  0
   -5.2987   -0.3072    0.9782 H   0  0  0  0  0  0  0  0  0  0  0  0
   -4.8609   -0.6174   -0.7296 H   0  0  0  0  0  0  0  0  0  0  0  0
   -5.1872   -2.7476    0.5741 H   0  0  0  0  0  0  0  0  0  0  0  0
   -3.5535   -2.5912   -0.0882 H   0  0  0  0  0  0  0  0  0  0  0  0
   -3.8420   -2.2757    1.6294 H   0  0  0  0  0  0  0  0  0  0  0  0
  1  2  1  0  0  0  0
  2  3  1  0  0  0  0
  3  4  2  0  0  0  0
  4  5  2  0  0  0  0
  4  6  2  0  0  0  0
  6  7  1  0  0  0  0
  7  8  1  0  0  0  0
  4  9  1  0  0  0  0
  9 10  1  0  0  0  0
 10 11  1  0  0  0  0
 11 12  1  0  0  0  0
 12 13  2  0  0  0  0
 12 14  2  0  0  0  0
 14 15  1  0  0  0  0
 15 16  1  0  0  0  0
 12 17  2  0  0  0  0
 17 18  1  0  0  0  0
 18 19  1  0  0  0  0
  1 20  1  0  0  0  0
  1 21  1  0  0  0  0
  1 22  1  0  0  0  0
  2 23  1  0  0  0  0
  2 24  1  0  0  0  0
  7 25  1  0  0  0  0
  7 26  1  0  0  0  0
  8 27  1  0  0  0  0
  8 28  1  0  0  0  0
  8 29  1  0  0  0  0
 10 30  1  0  0  0  0
 10 31  1  0  0  0  0
 15 32  1  0  0  0  0
 15 33  1  0  0  0  0
 16 34  1  0  0  0  0
 16 35  1  0  0  0  0
 16 36  1  0  0  0  0
 18 37  1  0  0  0  0
 18 38  1  0  0  0  0
 19 39  1  0  0  0  0
 19 40  1  0  0  0  0
 19 41  1  0  0  0  0
M  END
