 xtb: 6.7.1 (edcfbbe)
          04092505213D

 41 40  0     0  0            999 V2000
    1.6010    2.8128    0.1776 C   0  0  0  0  0  0  0  0  0  0  0  0
    2.4019    2.3206    1.3656 C   0  0  0  0  0  0  0  0  0  0  0  0
    2.8946    0.9844    1.1709 O   0  0  0  0  0  0  0  0  0  0  0  0
    1.9728   -0.3080    1.2949 P   0  0  0  0  0  0  0  0  0  0  0  0
    0.6735   -0.3030    2.7539 S   0  0  0  0  0  0  0  0  0  0  0  0
    3.0431   -1.4471    1.5183 O   0  0  0  0  0  0  0  0  0  0  0  0
    4.1626   -1.6803    0.6239 C   0  0  0  0  0  0  0  0  0  0  0  0
    3.9552   -2.9681   -0.1482 C   0  0  0  0  0  0  0  0  0  0  0  0
    1.2390   -0.6118   -0.6806 S   0  0  0  0  0  0  0  0  0  0  0  0
   -0.1118   -1.7505   -0.2394 C   0  0  0  0  0  0  0  0  0  0  0  0
   -1.5930   -1.5550   -1.2660 S   0  0  0  0  0  0  0  0  0  0  0  0
   -2.0965    0.4815   -0.8975 P   0  0  0  0  0  0  0  0  0  0  0  0
   -3.9231    0.9810   -1.3937 S   0  0  0  0  0  0  0  0  0  0  0  0
   -0.9563    1.3560   -1.5733 O   0  0  0  0  0  0  0  0  0  0  0  0
   -1.0110    1.7508   -2.9545 C   0  0  0  0  0  0  0  0  0  0  0  0
   -0.6827    0.6015   -3.8874 C   0  0  0  0  0  0  0  0  0  0  0  0
   -1.6611    0.7494    0.6072 O   0  0  0  0  0  0  0  0  0  0  0  0
   -2.6275    0.7274    1.6723 C   0  0  0  0  0  0  0  0  0  0  0  0
   -3.0878   -0.6792    1.9982 C   0  0  0  0  0  0  0  0  0  0  0  0
    0.6659    2.2620    0.0921 H   0  0  0  0  0  0  0  0  0  0  0  0
    1.3735    3.8656    0.3122 H   0  0  0  0  0  0  0  0  0  0  0  0
    2.1704    2.6821   -0.7392 H   0  0  0  0  0  0  0  0  0  0  0  0
    1.7977    2.3400    2.2785 H   0  0  0  0  0  0  0  0  0  0  0  0
    3.3072    2.9128    1.5106 H   0  0  0  0  0  0  0  0  0  0  0  0
    4.2712   -0.8249   -0.0458 H   0  0  0  0  0  0  0  0  0  0  0  0
    5.0326   -1.7457    1.2788 H   0  0  0  0  0  0  0  0  0  0  0  0
    3.1240   -2.8700   -0.8418 H   0  0  0  0  0  0  0  0  0  0  0  0
    4.8571   -3.1927   -0.7088 H   0  0  0  0  0  0  0  0  0  0  0  0
    3.7498   -3.7839    0.5395 H   0  0  0  0  0  0  0  0  0  0  0  0
   -0.3635   -1.5822    0.8095 H   0  0  0  0  0  0  0  0  0  0  0  0
    0.2060   -2.7768   -0.4084 H   0  0  0  0  0  0  0  0  0  0  0  0
   -2.0091    2.1504   -3.1632 H   0  0  0  0  0  0  0  0  0  0  0  0
   -0.2709    2.5491   -3.0269 H   0  0  0  0  0  0  0  0  0  0  0  0
   -1.4720   -0.1481   -3.8544 H   0  0  0  0  0  0  0  0  0  0  0  0
   -0.5969    0.9781   -4.9016 H   0  0  0  0  0  0  0  0  0  0  0  0
    0.2562    0.1381   -3.5927 H   0  0  0  0  0  0  0  0  0  0  0  0
   -2.1011    1.1762    2.5160 H   0  0  0  0  0  0  0  0  0  0  0  0
   -3.4772    1.3522    1.3802 H   0  0  0  0  0  0  0  0  0  0  0  0
   -2.2474   -1.2864    2.3266 H   0  0  0  0  0  0  0  0  0  0  0  0
   -3.8217   -0.6365    2.7964 H   0  0  0  0  0  0  0  0  0  0  0  0
   -3.5460   -1.1350    1.1204 H   0  0  0  0  0  0  0  0  0  0  0  0
  1  2  1  0  0  0  0
  2  3  1  0  0  0  0
  3  4  2  0  0  0  0
  4  5  2  0  0  0  0
  4  6  2  0  0  0  0
  6  7  1  0  0  0  0
  7  8  1  0  0  0  0
  4  9  1  0  0  0  0
  9 10  1  0  0  0  0
 10 11  1  0  0  0  0
 11 12  1  0  0  0  0
 12 13  2  0  0  0  0
 12 14  2  0  0  0  0
 14 15  1  0  0  0  0
 15 16  1  0  0  0  0
 12 17  2  0  0  0  0
 17 18  1  0  0  0  0
 18 19  1  0  0  0  0
  1 20  1  0  0  0  0
  1 21  1  0  0  0  0
  1 22  1  0  0  0  0
  2 23  1  0  0  0  0
  2 24  1  0  0  0  0
  7 25  1  0  0  0  0
  7 26  1  0  0  0  0
  8 27  1  0  0  0  0
  8 28  1  0  0  0  0
  8 29  1  0  0  0  0
 10 30  1  0  0  0  0
 10 31  1  0  0  0  0
 15 32  1  0  0  0  0
 15 33  1  0  0  0  0
 16 34  1  0  0  0  0
 16 35  1  0  0  0  0
 16 36  1  0  0  0  0
 18 37  1  0  0  0  0
 18 38  1  0  0  0  0
 19 39  1  0  0  0  0
 19 40  1  0  0  0  0
 19 41  1  0  0  0  0
M  END
