 xtb: 6.7.1 (edcfbbe)
          04092505213D

 41 40  0     0  0            999 V2000
    3.9290   -1.7267   -2.3958 C   0  0  0  0  0  0  0  0  0  0  0  0
    4.0138   -0.2401   -2.1198 C   0  0  0  0  0  0  0  0  0  0  0  0
    3.4180    0.1190   -0.8581 O   0  0  0  0  0  0  0  0  0  0  0  0
    1.8643   -0.0249   -0.5740 P   0  0  0  0  0  0  0  0  0  0  0  0
    0.6777    0.4469   -2.0570 S   0  0  0  0  0  0  0  0  0  0  0  0
    1.6583    0.9043    0.6846 O   0  0  0  0  0  0  0  0  0  0  0  0
    2.6261    1.1776    1.7264 C   0  0  0  0  0  0  0  0  0  0  0  0
    2.9647   -0.0521    2.5428 C   0  0  0  0  0  0  0  0  0  0  0  0
    1.6021   -2.0208    0.1006 S   0  0  0  0  0  0  0  0  0  0  0  0
   -0.2000   -1.9589    0.1829 C   0  0  0  0  0  0  0  0  0  0  0  0
   -0.8244   -0.9478    1.5741 S   0  0  0  0  0  0  0  0  0  0  0  0
   -1.7984    0.6933    0.6747 P   0  0  0  0  0  0  0  0  0  0  0  0
   -1.0008    2.4616    0.4125 S   0  0  0  0  0  0  0  0  0  0  0  0
   -3.0153    0.9319    1.6713 O   0  0  0  0  0  0  0  0  0  0  0  0
   -3.8236   -0.0634    2.3418 C   0  0  0  0  0  0  0  0  0  0  0  0
   -4.5691   -0.9662    1.3807 C   0  0  0  0  0  0  0  0  0  0  0  0
   -2.3579   -0.0182   -0.6410 O   0  0  0  0  0  0  0  0  0  0  0  0
   -2.8440    0.7304   -1.7717 C   0  0  0  0  0  0  0  0  0  0  0  0
   -2.8641   -0.1954   -2.9698 C   0  0  0  0  0  0  0  0  0  0  0  0
    2.8937   -2.0160   -2.5672 H   0  0  0  0  0  0  0  0  0  0  0  0
    4.5095   -1.9564   -3.2836 H   0  0  0  0  0  0  0  0  0  0  0  0
    4.3177   -2.2929   -1.5533 H   0  0  0  0  0  0  0  0  0  0  0  0
    3.5141    0.3280   -2.9105 H   0  0  0  0  0  0  0  0  0  0  0  0
    5.0472    0.0948   -2.0190 H   0  0  0  0  0  0  0  0  0  0  0  0
    3.5170    1.6011    1.2592 H   0  0  0  0  0  0  0  0  0  0  0  0
    2.1252    1.9394    2.3273 H   0  0  0  0  0  0  0  0  0  0  0  0
    2.0579   -0.5129    2.9293 H   0  0  0  0  0  0  0  0  0  0  0  0
    3.5003   -0.7775    1.9340 H   0  0  0  0  0  0  0  0  0  0  0  0
    3.5946    0.2453    3.3754 H   0  0  0  0  0  0  0  0  0  0  0  0
   -0.5349   -2.9770    0.3611 H   0  0  0  0  0  0  0  0  0  0  0  0
   -0.5953   -1.5595   -0.7506 H   0  0  0  0  0  0  0  0  0  0  0  0
   -3.1761   -0.6445    3.0025 H   0  0  0  0  0  0  0  0  0  0  0  0
   -4.5103    0.5402    2.9379 H   0  0  0  0  0  0  0  0  0  0  0  0
   -5.1642   -0.3733    0.6902 H   0  0  0  0  0  0  0  0  0  0  0  0
   -3.8714   -1.5766    0.8121 H   0  0  0  0  0  0  0  0  0  0  0  0
   -5.2268   -1.6169    1.9487 H   0  0  0  0  0  0  0  0  0  0  0  0
   -3.8434    1.1005   -1.5274 H   0  0  0  0  0  0  0  0  0  0  0  0
   -2.1807    1.5859   -1.9382 H   0  0  0  0  0  0  0  0  0  0  0  0
   -1.8495   -0.4957   -3.2201 H   0  0  0  0  0  0  0  0  0  0  0  0
   -3.4590   -1.0772   -2.7509 H   0  0  0  0  0  0  0  0  0  0  0  0
   -3.2940    0.3321   -3.8146 H   0  0  0  0  0  0  0  0  0  0  0  0
  1  2  1  0  0  0  0
  2  3  1  0  0  0  0
  3  4  2  0  0  0  0
  4  5  2  0  0  0  0
  4  6  2  0  0  0  0
  6  7  1  0  0  0  0
  7  8  1  0  0  0  0
  4  9  1  0  0  0  0
  9 10  1  0  0  0  0
 10 11  1  0  0  0  0
 11 12  1  0  0  0  0
 12 13  2  0  0  0  0
 12 14  2  0  0  0  0
 14 15  1  0  0  0  0
 15 16  1  0  0  0  0
 12 17  1  0  0  0  0
 17 18  1  0  0  0  0
 18 19  1  0  0  0  0
  1 20  1  0  0  0  0
  1 21  1  0  0  0  0
  1 22  1  0  0  0  0
  2 23  1  0  0  0  0
  2 24  1  0  0  0  0
  7 25  1  0  0  0  0
  7 26  1  0  0  0  0
  8 27  1  0  0  0  0
  8 28  1  0  0  0  0
  8 29  1  0  0  0  0
 10 30  1  0  0  0  0
 10 31  1  0  0  0  0
 15 32  1  0  0  0  0
 15 33  1  0  0  0  0
 16 34  1  0  0  0  0
 16 35  1  0  0  0  0
 16 36  1  0  0  0  0
 18 37  1  0  0  0  0
 18 38  1  0  0  0  0
 19 39  1  0  0  0  0
 19 40  1  0  0  0  0
 19 41  1  0  0  0  0
M  END
