 xtb: 6.7.1 (edcfbbe)
          04092505213D

 41 40  0     0  0            999 V2000
    4.2138   -2.6036    0.0123 C   0  0  0  0  0  0  0  0  0  0  0  0
    4.5548   -1.1753    0.3857 C   0  0  0  0  0  0  0  0  0  0  0  0
    3.3970   -0.4335    0.8100 O   0  0  0  0  0  0  0  0  0  0  0  0
    2.2253   -0.0399   -0.1891 P   0  0  0  0  0  0  0  0  0  0  0  0
    2.8147    0.5023   -1.9830 S   0  0  0  0  0  0  0  0  0  0  0  0
    1.4506    1.0543    0.6630 O   0  0  0  0  0  0  0  0  0  0  0  0
    1.6877    2.4635    0.4967 C   0  0  0  0  0  0  0  0  0  0  0  0
    3.0374    2.8715    1.0482 C   0  0  0  0  0  0  0  0  0  0  0  0
    0.8742   -1.6440   -0.0405 S   0  0  0  0  0  0  0  0  0  0  0  0
   -0.1468   -1.2341   -1.4846 C   0  0  0  0  0  0  0  0  0  0  0  0
   -0.7763    0.4744   -1.5154 S   0  0  0  0  0  0  0  0  0  0  0  0
   -2.1606    0.4034    0.0782 P   0  0  0  0  0  0  0  0  0  0  0  0
   -3.2448    2.0169    0.3096 S   0  0  0  0  0  0  0  0  0  0  0  0
   -1.2246    0.0057    1.2873 O   0  0  0  0  0  0  0  0  0  0  0  0
   -1.6111    0.2320    2.6581 C   0  0  0  0  0  0  0  0  0  0  0  0
   -2.7438   -0.6806    3.0760 C   0  0  0  0  0  0  0  0  0  0  0  0
   -2.9768   -0.9439   -0.1656 O   0  0  0  0  0  0  0  0  0  0  0  0
   -4.1213   -0.9925   -1.0396 C   0  0  0  0  0  0  0  0  0  0  0  0
   -4.9393   -2.2123   -0.6654 C   0  0  0  0  0  0  0  0  0  0  0  0
    3.6623   -3.0834    0.8168 H   0  0  0  0  0  0  0  0  0  0  0  0
    3.6020   -2.6168   -0.8886 H   0  0  0  0  0  0  0  0  0  0  0  0
    5.1304   -3.1533   -0.1763 H   0  0  0  0  0  0  0  0  0  0  0  0
    5.0056   -0.6536   -0.4646 H   0  0  0  0  0  0  0  0  0  0  0  0
    5.2230   -1.1311    1.2467 H   0  0  0  0  0  0  0  0  0  0  0  0
    1.6113    2.7059   -0.5693 H   0  0  0  0  0  0  0  0  0  0  0  0
    0.8650    2.9380    1.0354 H   0  0  0  0  0  0  0  0  0  0  0  0
    3.1333    2.5478    2.0813 H   0  0  0  0  0  0  0  0  0  0  0  0
    3.8296    2.4114    0.4587 H   0  0  0  0  0  0  0  0  0  0  0  0
    3.1371    3.9510    0.9940 H   0  0  0  0  0  0  0  0  0  0  0  0
   -0.9742   -1.9388   -1.4849 H   0  0  0  0  0  0  0  0  0  0  0  0
    0.4530   -1.3234   -2.3894 H   0  0  0  0  0  0  0  0  0  0  0  0
   -0.6966    0.0349    3.2195 H   0  0  0  0  0  0  0  0  0  0  0  0
   -1.8984    1.2829    2.7677 H   0  0  0  0  0  0  0  0  0  0  0  0
   -2.4849   -1.7161    2.8716 H   0  0  0  0  0  0  0  0  0  0  0  0
   -2.9337   -0.5555    4.1375 H   0  0  0  0  0  0  0  0  0  0  0  0
   -3.6454   -0.4231    2.5219 H   0  0  0  0  0  0  0  0  0  0  0  0
   -4.6950   -0.0681   -0.9149 H   0  0  0  0  0  0  0  0  0  0  0  0
   -3.7664   -1.0500   -2.0726 H   0  0  0  0  0  0  0  0  0  0  0  0
   -4.3322   -3.1088   -0.7506 H   0  0  0  0  0  0  0  0  0  0  0  0
   -5.2963   -2.1257    0.3568 H   0  0  0  0  0  0  0  0  0  0  0  0
   -5.7894   -2.2887   -1.3352 H   0  0  0  0  0  0  0  0  0  0  0  0
  1  2  1  0  0  0  0
  2  3  1  0  0  0  0
  3  4  2  0  0  0  0
  4  5  2  0  0  0  0
  4  6  2  0  0  0  0
  6  7  1  0  0  0  0
  7  8  1  0  0  0  0
  4  9  1  0  0  0  0
  9 10  1  0  0  0  0
 10 11  1  0  0  0  0
 11 12  1  0  0  0  0
 12 13  2  0  0  0  0
 12 14  2  0  0  0  0
 14 15  1  0  0  0  0
 15 16  1  0  0  0  0
 12 17  2  0  0  0  0
 17 18  1  0  0  0  0
 18 19  1  0  0  0  0
  1 20  1  0  0  0  0
  1 21  1  0  0  0  0
  1 22  1  0  0  0  0
  2 23  1  0  0  0  0
  2 24  1  0  0  0  0
  7 25  1  0  0  0  0
  7 26  1  0  0  0  0
  8 27  1  0  0  0  0
  8 28  1  0  0  0  0
  8 29  1  0  0  0  0
 10 30  1  0  0  0  0
 10 31  1  0  0  0  0
 15 32  1  0  0  0  0
 15 33  1  0  0  0  0
 16 34  1  0  0  0  0
 16 35  1  0  0  0  0
 16 36  1  0  0  0  0
 18 37  1  0  0  0  0
 18 38  1  0  0  0  0
 19 39  1  0  0  0  0
 19 40  1  0  0  0  0
 19 41  1  0  0  0  0
M  END
