 xtb: 6.7.1 (edcfbbe)
          04032520373D

 11 10  0     0  0            999 V2000
   -1.7438   -0.6661    0.0000 C   0  0  0  0  0  0  0  0  0  0  0  0
   -0.4666    0.1179   -0.0000 C   0  0  0  0  0  0  0  0  0  0  0  0
   -0.3952    1.3301    0.0000 O   0  0  0  0  0  0  0  0  0  0  0  0
    0.5937   -0.6821    0.0000 O   0  0  0  0  0  0  0  0  0  0  0  0
    1.9044   -0.1089    0.0000 C   0  0  0  0  0  0  0  0  0  0  0  0
   -1.5263   -1.7285    0.0042 H   0  0  0  0  0  0  0  0  0  0  0  0
   -2.3222   -0.3987   -0.8806 H   0  0  0  0  0  0  0  0  0  0  0  0
   -2.3264   -0.3922    0.8758 H   0  0  0  0  0  0  0  0  0  0  0  0
    2.4154   -0.4489   -0.8988 H   0  0  0  0  0  0  0  0  0  0  0  0
    2.4217   -0.4665    0.8882 H   0  0  0  0  0  0  0  0  0  0  0  0
    1.8323    0.9793    0.0106 H   0  0  0  0  0  0  0  0  0  0  0  0
  1  2  1  0  0  0  0
  2  3  2  0  0  0  0
  2  4  1  0  0  0  0
  4  5  1  0  0  0  0
  1  6  1  0  0  0  0
  1  7  1  0  0  0  0
  1  8  1  0  0  0  0
  5  9  1  0  0  0  0
  5 10  1  0  0  0  0
  5 11  1  0  0  0  0
M  END
