 xtb: 6.7.1 (edcfbbe)
          04092507313D

 38 37  0     0  0            999 V2000
    5.8132   -1.5465   -0.3348 C   0  0  0  0  0  0  0  0  0  0  0  0
    4.7707   -0.7104   -1.0512 C   0  0  0  0  0  0  0  0  0  0  0  0
    3.4724   -1.2733   -0.7748 O   0  0  0  0  0  0  0  0  0  0  0  0
    2.4589   -0.8801   -1.5165 C   0  0  0  0  0  0  0  0  0  0  0  0
    2.5417   -0.0800   -2.4211 O   0  0  0  0  0  0  0  0  0  0  0  0
    1.1671   -1.5653   -1.1047 C   0  0  0  0  0  0  0  0  0  0  0  0
    0.1394   -0.4984   -0.7300 C   0  0  0  0  0  0  0  0  0  0  0  0
    0.0514    0.2313   -1.5417 H   0  0  0  0  0  0  0  0  0  0  0  0
    0.5482    0.2300    0.5373 C   0  0  0  0  0  0  0  0  0  0  0  0
   -0.1284    0.2341    1.5442 O   0  0  0  0  0  0  0  0  0  0  0  0
    1.7028    0.8264    0.3974 O   0  0  0  0  0  0  0  0  0  0  0  0
    2.2433    1.5396    1.5324 C   0  0  0  0  0  0  0  0  0  0  0  0
    2.9542    0.5888    2.4808 C   0  0  0  0  0  0  0  0  0  0  0  0
   -1.4901   -1.2593   -0.4417 S   0  0  0  0  0  0  0  0  0  0  0  0
   -2.5151    0.4634    0.2593 P   0  0  0  0  0  0  0  0  0  0  0  0
   -1.7918    2.2018   -0.2814 S   0  0  0  0  0  0  0  0  0  0  0  0
   -3.9868    0.1890   -0.3227 O   0  0  0  0  0  0  0  0  0  0  0  0
   -4.2591    0.2499   -1.7257 C   0  0  0  0  0  0  0  0  0  0  0  0
   -2.8311    0.3501    1.7995 O   0  0  0  0  0  0  0  0  0  0  0  0
   -3.3329   -0.8600    2.4019 C   0  0  0  0  0  0  0  0  0  0  0  0
    5.6241   -1.5495    0.7346 H   0  0  0  0  0  0  0  0  0  0  0  0
    5.7845   -2.5699   -0.6966 H   0  0  0  0  0  0  0  0  0  0  0  0
    6.7968   -1.1288   -0.5218 H   0  0  0  0  0  0  0  0  0  0  0  0
    4.9221   -0.7078   -2.1349 H   0  0  0  0  0  0  0  0  0  0  0  0
    4.7695    0.3270   -0.7029 H   0  0  0  0  0  0  0  0  0  0  0  0
    1.3558   -2.2384   -0.2694 H   0  0  0  0  0  0  0  0  0  0  0  0
    0.7855   -2.1331   -1.9547 H   0  0  0  0  0  0  0  0  0  0  0  0
    2.9301    2.2604    1.0887 H   0  0  0  0  0  0  0  0  0  0  0  0
    1.4224    2.0595    2.0344 H   0  0  0  0  0  0  0  0  0  0  0  0
    3.4383    1.1633    3.2635 H   0  0  0  0  0  0  0  0  0  0  0  0
    2.2388   -0.0936    2.9337 H   0  0  0  0  0  0  0  0  0  0  0  0
    3.7010    0.0128    1.9410 H   0  0  0  0  0  0  0  0  0  0  0  0
   -3.8187   -0.6121   -2.2269 H   0  0  0  0  0  0  0  0  0  0  0  0
   -3.8556    1.1728   -2.1458 H   0  0  0  0  0  0  0  0  0  0  0  0
   -5.3422    0.2344   -1.8144 H   0  0  0  0  0  0  0  0  0  0  0  0
   -3.4939   -0.6066    3.4463 H   0  0  0  0  0  0  0  0  0  0  0  0
   -2.5890   -1.6509    2.3087 H   0  0  0  0  0  0  0  0  0  0  0  0
   -4.2645   -1.1568    1.9234 H   0  0  0  0  0  0  0  0  0  0  0  0
  1  2  1  0  0  0  0
  2  3  1  0  0  0  0
  3  4  1  0  0  0  0
  4  5  2  0  0  0  0
  4  6  1  0  0  0  0
  6  7  1  0  0  0  0
  7  8  1  0  0  0  0
  7  9  1  0  0  0  0
  9 10  2  0  0  0  0
  9 11  4  0  0  0  0
 11 12  1  0  0  0  0
 12 13  1  0  0  0  0
  7 14  1  0  0  0  0
 14 15  1  0  0  0  0
 15 16  2  0  0  0  0
 15 17  1  0  0  0  0
 17 18  1  0  0  0  0
 15 19  2  0  0  0  0
 19 20  1  0  0  0  0
  1 21  1  0  0  0  0
  1 22  1  0  0  0  0
  1 23  1  0  0  0  0
  2 24  1  0  0  0  0
  2 25  1  0  0  0  0
  6 26  1  0  0  0  0
  6 27  1  0  0  0  0
 12 28  1  0  0  0  0
 12 29  1  0  0  0  0
 13 30  1  0  0  0  0
 13 31  1  0  0  0  0
 13 32  1  0  0  0  0
 18 33  1  0  0  0  0
 18 34  1  0  0  0  0
 18 35  1  0  0  0  0
 20 36  1  0  0  0  0
 20 37  1  0  0  0  0
 20 38  1  0  0  0  0
M  END
