 xtb: 6.7.1 (edcfbbe)
          04032519433D

  8  7  0     0  0            999 V2000
    1.2680    0.3193   -1.1594 C   0  0  0  0  0  0  0  0  0  0  0  0
    0.0355   -0.5514   -1.1337 C   0  0  0  0  0  0  0  0  0  0  0  0
   -1.2271    0.0015    0.2747 Br  0  0  0  0  0  0  0  0  0  0  0  0
    2.2476    0.0937    0.3343 Cl  0  0  0  0  0  0  0  0  0  0  0  0
    1.9030    0.0352   -1.9979 H   0  0  0  0  0  0  0  0  0  0  0  0
    1.0171    1.3779   -1.2140 H   0  0  0  0  0  0  0  0  0  0  0  0
    0.2781   -1.5915   -0.9248 H   0  0  0  0  0  0  0  0  0  0  0  0
   -0.5104   -0.4667   -2.0725 H   0  0  0  0  0  0  0  0  0  0  0  0
  1  2  1  0  0  0  0
  2  3  1  0  0  0  0
  1  4  1  0  0  0  0
  1  5  1  0  0  0  0
  1  6  1  0  0  0  0
  2  7  1  0  0  0  0
  2  8  1  0  0  0  0
M  END
