 xtb: 6.7.1 (edcfbbe)
          04092505213D

 41 40  0     0  0            999 V2000
    2.7318   -3.1418   -1.4844 C   0  0  0  0  0  0  0  0  0  0  0  0
    3.0454   -2.5287   -0.1347 C   0  0  0  0  0  0  0  0  0  0  0  0
    3.3435   -1.1154   -0.2530 O   0  0  0  0  0  0  0  0  0  0  0  0
    2.2795    0.0442   -0.0898 P   0  0  0  0  0  0  0  0  0  0  0  0
    3.1376    1.7934    0.0318 S   0  0  0  0  0  0  0  0  0  0  0  0
    1.3597   -0.3893    1.1450 O   0  0  0  0  0  0  0  0  0  0  0  0
    1.3888    0.2912    2.4124 C   0  0  0  0  0  0  0  0  0  0  0  0
    2.5942   -0.1305    3.2277 C   0  0  0  0  0  0  0  0  0  0  0  0
    0.9276   -0.2267   -1.7049 S   0  0  0  0  0  0  0  0  0  0  0  0
    0.2269    1.4409   -1.6701 C   0  0  0  0  0  0  0  0  0  0  0  0
   -0.6280    1.8252   -0.1235 S   0  0  0  0  0  0  0  0  0  0  0  0
   -2.1454    0.3362   -0.3138 P   0  0  0  0  0  0  0  0  0  0  0  0
   -2.7918   -0.0301   -2.1170 S   0  0  0  0  0  0  0  0  0  0  0  0
   -3.2804    0.8886    0.6350 O   0  0  0  0  0  0  0  0  0  0  0  0
   -3.0497    1.2031    2.0325 C   0  0  0  0  0  0  0  0  0  0  0  0
   -4.3639    1.6789    2.6146 C   0  0  0  0  0  0  0  0  0  0  0  0
   -1.5272   -0.9007    0.4860 O   0  0  0  0  0  0  0  0  0  0  0  0
   -1.4241   -2.2306   -0.0537 C   0  0  0  0  0  0  0  0  0  0  0  0
   -2.6925   -3.0137    0.2180 C   0  0  0  0  0  0  0  0  0  0  0  0
    1.8193   -2.7173   -1.8986 H   0  0  0  0  0  0  0  0  0  0  0  0
    3.5470   -2.9530   -2.1773 H   0  0  0  0  0  0  0  0  0  0  0  0
    2.6034   -4.2132   -1.3658 H   0  0  0  0  0  0  0  0  0  0  0  0
    3.9569   -2.9537    0.2890 H   0  0  0  0  0  0  0  0  0  0  0  0
    2.2157   -2.6571    0.5638 H   0  0  0  0  0  0  0  0  0  0  0  0
    1.3997    1.3707    2.2329 H   0  0  0  0  0  0  0  0  0  0  0  0
    0.4502    0.0069    2.8907 H   0  0  0  0  0  0  0  0  0  0  0  0
    2.5883   -1.2050    3.3906 H   0  0  0  0  0  0  0  0  0  0  0  0
    3.5064    0.1428    2.6980 H   0  0  0  0  0  0  0  0  0  0  0  0
    2.5769    0.3793    4.1856 H   0  0  0  0  0  0  0  0  0  0  0  0
   -0.4758    1.4968   -2.5012 H   0  0  0  0  0  0  0  0  0  0  0  0
    1.0268    2.1740   -1.7709 H   0  0  0  0  0  0  0  0  0  0  0  0
   -2.6892    0.3015    2.5325 H   0  0  0  0  0  0  0  0  0  0  0  0
   -2.2814    1.9796    2.0852 H   0  0  0  0  0  0  0  0  0  0  0  0
   -5.1155    0.8998    2.5256 H   0  0  0  0  0  0  0  0  0  0  0  0
   -4.2214    1.9259    3.6617 H   0  0  0  0  0  0  0  0  0  0  0  0
   -4.7097    2.5594    2.0808 H   0  0  0  0  0  0  0  0  0  0  0  0
   -1.2314   -2.1688   -1.1290 H   0  0  0  0  0  0  0  0  0  0  0  0
   -0.5602   -2.6656    0.4513 H   0  0  0  0  0  0  0  0  0  0  0  0
   -3.5319   -2.5355   -0.2845 H   0  0  0  0  0  0  0  0  0  0  0  0
   -2.5799   -4.0229   -0.1647 H   0  0  0  0  0  0  0  0  0  0  0  0
   -2.8949   -3.0523    1.2848 H   0  0  0  0  0  0  0  0  0  0  0  0
  1  2  1  0  0  0  0
  2  3  1  0  0  0  0
  3  4  2  0  0  0  0
  4  5  2  0  0  0  0
  4  6  1  0  0  0  0
  6  7  1  0  0  0  0
  7  8  1  0  0  0  0
  4  9  1  0  0  0  0
  9 10  1  0  0  0  0
 10 11  1  0  0  0  0
 11 12  1  0  0  0  0
 12 13  2  0  0  0  0
 12 14  2  0  0  0  0
 14 15  1  0  0  0  0
 15 16  1  0  0  0  0
 12 17  2  0  0  0  0
 17 18  1  0  0  0  0
 18 19  1  0  0  0  0
  1 20  1  0  0  0  0
  1 21  1  0  0  0  0
  1 22  1  0  0  0  0
  2 23  1  0  0  0  0
  2 24  1  0  0  0  0
  7 25  1  0  0  0  0
  7 26  1  0  0  0  0
  8 27  1  0  0  0  0
  8 28  1  0  0  0  0
  8 29  1  0  0  0  0
 10 30  1  0  0  0  0
 10 31  1  0  0  0  0
 15 32  1  0  0  0  0
 15 33  1  0  0  0  0
 16 34  1  0  0  0  0
 16 35  1  0  0  0  0
 16 36  1  0  0  0  0
 18 37  1  0  0  0  0
 18 38  1  0  0  0  0
 19 39  1  0  0  0  0
 19 40  1  0  0  0  0
 19 41  1  0  0  0  0
M  END
