 xtb: 6.7.1 (edcfbbe)
          04092505203D

 41 40  0     0  0            999 V2000
    3.0320    0.3886    3.2227 C   0  0  0  0  0  0  0  0  0  0  0  0
    1.6548   -0.0114    2.7391 C   0  0  0  0  0  0  0  0  0  0  0  0
    1.4090    0.4671    1.3996 O   0  0  0  0  0  0  0  0  0  0  0  0
    2.1825   -0.1183    0.1512 P   0  0  0  0  0  0  0  0  0  0  0  0
    2.7383   -1.9969    0.3039 S   0  0  0  0  0  0  0  0  0  0  0  0
    3.3162    0.9766   -0.0432 O   0  0  0  0  0  0  0  0  0  0  0  0
    4.2641    0.9385   -1.1280 C   0  0  0  0  0  0  0  0  0  0  0  0
    5.5080    0.1616   -0.7416 C   0  0  0  0  0  0  0  0  0  0  0  0
    0.8486    0.3083   -1.4397 S   0  0  0  0  0  0  0  0  0  0  0  0
   -0.1161   -1.2181   -1.2929 C   0  0  0  0  0  0  0  0  0  0  0  0
   -1.1447   -1.2514    0.1905 S   0  0  0  0  0  0  0  0  0  0  0  0
   -2.5330    0.2333   -0.4738 P   0  0  0  0  0  0  0  0  0  0  0  0
   -2.9259    0.2257   -2.3889 S   0  0  0  0  0  0  0  0  0  0  0  0
   -1.9589    1.6400   -0.0586 O   0  0  0  0  0  0  0  0  0  0  0  0
   -1.6557    2.0070    1.3109 C   0  0  0  0  0  0  0  0  0  0  0  0
   -0.6447    3.1340    1.2762 C   0  0  0  0  0  0  0  0  0  0  0  0
   -3.7329    0.0750    0.5564 O   0  0  0  0  0  0  0  0  0  0  0  0
   -4.4001   -1.1595    0.8826 C   0  0  0  0  0  0  0  0  0  0  0  0
   -4.9113   -1.8923   -0.3396 C   0  0  0  0  0  0  0  0  0  0  0  0
    3.1558    0.0838    4.2570 H   0  0  0  0  0  0  0  0  0  0  0  0
    3.7900   -0.1039    2.6145 H   0  0  0  0  0  0  0  0  0  0  0  0
    3.1620    1.4644    3.1413 H   0  0  0  0  0  0  0  0  0  0  0  0
    0.8655    0.4494    3.3342 H   0  0  0  0  0  0  0  0  0  0  0  0
    1.5399   -1.1000    2.7463 H   0  0  0  0  0  0  0  0  0  0  0  0
    3.7854    0.5034   -2.0103 H   0  0  0  0  0  0  0  0  0  0  0  0
    4.4955    1.9874   -1.3224 H   0  0  0  0  0  0  0  0  0  0  0  0
    5.9593    0.5956    0.1463 H   0  0  0  0  0  0  0  0  0  0  0  0
    5.2577   -0.8770   -0.5369 H   0  0  0  0  0  0  0  0  0  0  0  0
    6.2200    0.1979   -1.5599 H   0  0  0  0  0  0  0  0  0  0  0  0
    0.5592   -2.0721   -1.2308 H   0  0  0  0  0  0  0  0  0  0  0  0
   -0.7547   -1.2707   -2.1754 H   0  0  0  0  0  0  0  0  0  0  0  0
   -2.5901    2.3156    1.7832 H   0  0  0  0  0  0  0  0  0  0  0  0
   -1.2595    1.1283    1.8288 H   0  0  0  0  0  0  0  0  0  0  0  0
   -0.4525    3.4729    2.2891 H   0  0  0  0  0  0  0  0  0  0  0  0
    0.2853    2.7906    0.8295 H   0  0  0  0  0  0  0  0  0  0  0  0
   -1.0318    3.9594    0.6856 H   0  0  0  0  0  0  0  0  0  0  0  0
   -3.7007   -1.7850    1.4443 H   0  0  0  0  0  0  0  0  0  0  0  0
   -5.2194   -0.8428    1.5304 H   0  0  0  0  0  0  0  0  0  0  0  0
   -4.0772   -2.2170   -0.9601 H   0  0  0  0  0  0  0  0  0  0  0  0
   -5.4794   -2.7625   -0.0269 H   0  0  0  0  0  0  0  0  0  0  0  0
   -5.5467   -1.2409   -0.9349 H   0  0  0  0  0  0  0  0  0  0  0  0
  1  2  1  0  0  0  0
  2  3  1  0  0  0  0
  3  4  2  0  0  0  0
  4  5  2  0  0  0  0
  4  6  2  0  0  0  0
  6  7  1  0  0  0  0
  7  8  1  0  0  0  0
  4  9  1  0  0  0  0
  9 10  1  0  0  0  0
 10 11  1  0  0  0  0
 11 12  1  0  0  0  0
 12 13  2  0  0  0  0
 12 14  2  0  0  0  0
 14 15  1  0  0  0  0
 15 16  1  0  0  0  0
 12 17  2  0  0  0  0
 17 18  1  0  0  0  0
 18 19  1  0  0  0  0
  1 20  1  0  0  0  0
  1 21  1  0  0  0  0
  1 22  1  0  0  0  0
  2 23  1  0  0  0  0
  2 24  1  0  0  0  0
  7 25  1  0  0  0  0
  7 26  1  0  0  0  0
  8 27  1  0  0  0  0
  8 28  1  0  0  0  0
  8 29  1  0  0  0  0
 10 30  1  0  0  0  0
 10 31  1  0  0  0  0
 15 32  1  0  0  0  0
 15 33  1  0  0  0  0
 16 34  1  0  0  0  0
 16 35  1  0  0  0  0
 16 36  1  0  0  0  0
 18 37  1  0  0  0  0
 18 38  1  0  0  0  0
 19 39  1  0  0  0  0
 19 40  1  0  0  0  0
 19 41  1  0  0  0  0
M  END
