 xtb: 6.7.1 (edcfbbe)
          04092507313D

 38 37  0     0  0            999 V2000
    5.4259   -2.0173   -0.4401 C   0  0  0  0  0  0  0  0  0  0  0  0
    4.2778   -2.3879    0.4850 C   0  0  0  0  0  0  0  0  0  0  0  0
    3.0149   -2.3103   -0.2077 O   0  0  0  0  0  0  0  0  0  0  0  0
    2.3943   -1.1543   -0.2583 C   0  0  0  0  0  0  0  0  0  0  0  0
    2.8001   -0.1259    0.2475 O   0  0  0  0  0  0  0  0  0  0  0  0
    1.0788   -1.2526   -0.9952 C   0  0  0  0  0  0  0  0  0  0  0  0
    0.5778    0.1427   -1.3427 C   0  0  0  0  0  0  0  0  0  0  0  0
    1.0722    0.5487   -2.2261 H   0  0  0  0  0  0  0  0  0  0  0  0
    0.7390    1.1139   -0.1897 C   0  0  0  0  0  0  0  0  0  0  0  0
    0.2019    0.9317    0.8871 O   0  0  0  0  0  0  0  0  0  0  0  0
    1.3891    2.1916   -0.5382 O   0  0  0  0  0  0  0  0  0  0  0  0
    1.5234    3.2502    0.4331 C   0  0  0  0  0  0  0  0  0  0  0  0
    0.3204    4.1783    0.3741 C   0  0  0  0  0  0  0  0  0  0  0  0
   -1.2088    0.1654   -1.7232 S   0  0  0  0  0  0  0  0  0  0  0  0
   -2.1152   -0.1529    0.1562 P   0  0  0  0  0  0  0  0  0  0  0  0
   -1.5401   -1.5853    1.3795 S   0  0  0  0  0  0  0  0  0  0  0  0
   -2.3889    1.3065    0.7322 O   0  0  0  0  0  0  0  0  0  0  0  0
   -2.4994    1.5488    2.1423 C   0  0  0  0  0  0  0  0  0  0  0  0
   -3.6073   -0.4371   -0.3662 O   0  0  0  0  0  0  0  0  0  0  0  0
   -3.9854   -1.6990   -0.9244 C   0  0  0  0  0  0  0  0  0  0  0  0
    5.3389   -0.9772   -0.7461 H   0  0  0  0  0  0  0  0  0  0  0  0
    6.3658   -2.1526    0.0848 H   0  0  0  0  0  0  0  0  0  0  0  0
    5.4133   -2.6503   -1.3228 H   0  0  0  0  0  0  0  0  0  0  0  0
    4.2430   -1.7204    1.3506 H   0  0  0  0  0  0  0  0  0  0  0  0
    4.3444   -3.4266    0.8085 H   0  0  0  0  0  0  0  0  0  0  0  0
    0.3837   -1.7508   -0.3089 H   0  0  0  0  0  0  0  0  0  0  0  0
    1.1803   -1.8746   -1.8826 H   0  0  0  0  0  0  0  0  0  0  0  0
    1.6292    2.7982    1.4228 H   0  0  0  0  0  0  0  0  0  0  0  0
    2.4425    3.7627    0.1505 H   0  0  0  0  0  0  0  0  0  0  0  0
   -0.5890    3.6245    0.5997 H   0  0  0  0  0  0  0  0  0  0  0  0
    0.4421    4.9719    1.1036 H   0  0  0  0  0  0  0  0  0  0  0  0
    0.2298    4.6105   -0.6186 H   0  0  0  0  0  0  0  0  0  0  0  0
   -1.5722    1.2583    2.6375 H   0  0  0  0  0  0  0  0  0  0  0  0
   -3.3351    0.9876    2.5588 H   0  0  0  0  0  0  0  0  0  0  0  0
   -2.6691    2.6182    2.2386 H   0  0  0  0  0  0  0  0  0  0  0  0
   -3.5814   -2.5113   -0.3170 H   0  0  0  0  0  0  0  0  0  0  0  0
   -3.6172   -1.7775   -1.9467 H   0  0  0  0  0  0  0  0  0  0  0  0
   -5.0721   -1.7151   -0.9061 H   0  0  0  0  0  0  0  0  0  0  0  0
  1  2  1  0  0  0  0
  2  3  1  0  0  0  0
  3  4  4  0  0  0  0
  4  5  2  0  0  0  0
  4  6  1  0  0  0  0
  6  7  1  0  0  0  0
  7  8  1  0  0  0  0
  7  9  1  0  0  0  0
  9 10  2  0  0  0  0
  9 11  4  0  0  0  0
 11 12  1  0  0  0  0
 12 13  1  0  0  0  0
  7 14  1  0  0  0  0
 14 15  1  0  0  0  0
 15 16  2  0  0  0  0
 15 17  1  0  0  0  0
 17 18  1  0  0  0  0
 15 19  1  0  0  0  0
 19 20  1  0  0  0  0
  1 21  1  0  0  0  0
  1 22  1  0  0  0  0
  1 23  1  0  0  0  0
  2 24  1  0  0  0  0
  2 25  1  0  0  0  0
  6 26  1  0  0  0  0
  6 27  1  0  0  0  0
 12 28  1  0  0  0  0
 12 29  1  0  0  0  0
 13 30  1  0  0  0  0
 13 31  1  0  0  0  0
 13 32  1  0  0  0  0
 18 33  1  0  0  0  0
 18 34  1  0  0  0  0
 18 35  1  0  0  0  0
 20 36  1  0  0  0  0
 20 37  1  0  0  0  0
 20 38  1  0  0  0  0
M  END
