 xtb: 6.7.1 (edcfbbe)
          04092505213D

 41 40  0     0  0            999 V2000
    5.6454    0.5284   -0.9716 C   0  0  0  0  0  0  0  0  0  0  0  0
    4.2336    0.0275   -1.2000 C   0  0  0  0  0  0  0  0  0  0  0  0
    3.5097    0.1650    0.0391 O   0  0  0  0  0  0  0  0  0  0  0  0
    1.9226    0.1179    0.0861 P   0  0  0  0  0  0  0  0  0  0  0  0
    1.0743    1.3834   -1.1523 S   0  0  0  0  0  0  0  0  0  0  0  0
    1.6155    0.4320    1.5994 O   0  0  0  0  0  0  0  0  0  0  0  0
    2.2660   -0.2598    2.6982 C   0  0  0  0  0  0  0  0  0  0  0  0
    3.4326    0.5501    3.2247 C   0  0  0  0  0  0  0  0  0  0  0  0
    1.6415   -1.9830   -0.1620 S   0  0  0  0  0  0  0  0  0  0  0  0
   -0.1579   -2.2050   -0.1506 C   0  0  0  0  0  0  0  0  0  0  0  0
   -0.9935   -1.3294   -1.5199 S   0  0  0  0  0  0  0  0  0  0  0  0
   -2.0866    0.0837   -0.3996 P   0  0  0  0  0  0  0  0  0  0  0  0
   -2.8231    1.5687   -1.4379 S   0  0  0  0  0  0  0  0  0  0  0  0
   -1.1391    0.4405    0.8254 O   0  0  0  0  0  0  0  0  0  0  0  0
   -1.2732    1.7174    1.4844 C   0  0  0  0  0  0  0  0  0  0  0  0
   -2.5445    1.7819    2.3015 C   0  0  0  0  0  0  0  0  0  0  0  0
   -3.1416   -0.8334    0.3797 O   0  0  0  0  0  0  0  0  0  0  0  0
   -4.2386   -1.4696   -0.3014 C   0  0  0  0  0  0  0  0  0  0  0  0
   -5.4911   -0.6178   -0.2302 C   0  0  0  0  0  0  0  0  0  0  0  0
    6.1234   -0.0518   -0.1877 H   0  0  0  0  0  0  0  0  0  0  0  0
    6.2117    0.4245   -1.8911 H   0  0  0  0  0  0  0  0  0  0  0  0
    5.6278    1.5745   -0.6789 H   0  0  0  0  0  0  0  0  0  0  0  0
    4.2252   -1.0280   -1.4842 H   0  0  0  0  0  0  0  0  0  0  0  0
    3.7189    0.6112   -1.9704 H   0  0  0  0  0  0  0  0  0  0  0  0
    1.4849   -0.3690    3.4530 H   0  0  0  0  0  0  0  0  0  0  0  0
    2.5924   -1.2450    2.3545 H   0  0  0  0  0  0  0  0  0  0  0  0
    3.0986    1.5404    3.5219 H   0  0  0  0  0  0  0  0  0  0  0  0
    3.8564    0.0414    4.0850 H   0  0  0  0  0  0  0  0  0  0  0  0
    4.1944    0.6540    2.4571 H   0  0  0  0  0  0  0  0  0  0  0  0
   -0.5768   -1.8705    0.7948 H   0  0  0  0  0  0  0  0  0  0  0  0
   -0.3099   -3.2709   -0.3036 H   0  0  0  0  0  0  0  0  0  0  0  0
   -0.3766    1.7906    2.1009 H   0  0  0  0  0  0  0  0  0  0  0  0
   -1.2533    2.5042    0.7228 H   0  0  0  0  0  0  0  0  0  0  0  0
   -2.5861    0.9510    3.0006 H   0  0  0  0  0  0  0  0  0  0  0  0
   -2.5722    2.7203    2.8461 H   0  0  0  0  0  0  0  0  0  0  0  0
   -3.4065    1.7306    1.6374 H   0  0  0  0  0  0  0  0  0  0  0  0
   -3.9535   -1.6602   -1.3415 H   0  0  0  0  0  0  0  0  0  0  0  0
   -4.3747   -2.4191    0.2200 H   0  0  0  0  0  0  0  0  0  0  0  0
   -6.3103   -1.1461   -0.7071 H   0  0  0  0  0  0  0  0  0  0  0  0
   -5.7471   -0.4156    0.8060 H   0  0  0  0  0  0  0  0  0  0  0  0
   -5.3315    0.3274   -0.7445 H   0  0  0  0  0  0  0  0  0  0  0  0
  1  2  1  0  0  0  0
  2  3  1  0  0  0  0
  3  4  2  0  0  0  0
  4  5  2  0  0  0  0
  4  6  2  0  0  0  0
  6  7  1  0  0  0  0
  7  8  1  0  0  0  0
  4  9  1  0  0  0  0
  9 10  1  0  0  0  0
 10 11  1  0  0  0  0
 11 12  1  0  0  0  0
 12 13  2  0  0  0  0
 12 14  1  0  0  0  0
 14 15  1  0  0  0  0
 15 16  1  0  0  0  0
 12 17  1  0  0  0  0
 17 18  1  0  0  0  0
 18 19  1  0  0  0  0
  1 20  1  0  0  0  0
  1 21  1  0  0  0  0
  1 22  1  0  0  0  0
  2 23  1  0  0  0  0
  2 24  1  0  0  0  0
  7 25  1  0  0  0  0
  7 26  1  0  0  0  0
  8 27  1  0  0  0  0
  8 28  1  0  0  0  0
  8 29  1  0  0  0  0
 10 30  1  0  0  0  0
 10 31  1  0  0  0  0
 15 32  1  0  0  0  0
 15 33  1  0  0  0  0
 16 34  1  0  0  0  0
 16 35  1  0  0  0  0
 16 36  1  0  0  0  0
 18 37  1  0  0  0  0
 18 38  1  0  0  0  0
 19 39  1  0  0  0  0
 19 40  1  0  0  0  0
 19 41  1  0  0  0  0
M  END
