 xtb: 6.7.1 (edcfbbe)
          04092505203D

 41 40  0     0  0            999 V2000
    4.5636   -1.8873    0.8680 C   0  0  0  0  0  0  0  0  0  0  0  0
    4.6747   -0.4097    0.5533 C   0  0  0  0  0  0  0  0  0  0  0  0
    3.4292    0.2803    0.7606 O   0  0  0  0  0  0  0  0  0  0  0  0
    2.1589    0.0446   -0.1706 P   0  0  0  0  0  0  0  0  0  0  0  0
    2.6156   -0.1682   -2.0712 S   0  0  0  0  0  0  0  0  0  0  0  0
    1.2712    1.3001    0.2349 O   0  0  0  0  0  0  0  0  0  0  0  0
    1.5353    2.6145   -0.3011 C   0  0  0  0  0  0  0  0  0  0  0  0
    0.5920    2.9299   -1.4453 C   0  0  0  0  0  0  0  0  0  0  0  0
    1.0907   -1.4803    0.7912 S   0  0  0  0  0  0  0  0  0  0  0  0
   -0.0793   -1.8904   -0.5441 C   0  0  0  0  0  0  0  0  0  0  0  0
   -0.8335   -0.4582   -1.3647 S   0  0  0  0  0  0  0  0  0  0  0  0
   -2.2090    0.1488    0.1088 P   0  0  0  0  0  0  0  0  0  0  0  0
   -3.2413    1.7731   -0.2588 S   0  0  0  0  0  0  0  0  0  0  0  0
   -1.2509    0.1971    1.3656 O   0  0  0  0  0  0  0  0  0  0  0  0
   -1.7190    0.6523    2.6542 C   0  0  0  0  0  0  0  0  0  0  0  0
   -0.5097    0.7716    3.5580 C   0  0  0  0  0  0  0  0  0  0  0  0
   -3.1004   -1.1337    0.4580 O   0  0  0  0  0  0  0  0  0  0  0  0
   -4.3514   -1.3870   -0.2005 C   0  0  0  0  0  0  0  0  0  0  0  0
   -4.1581   -1.7627   -1.6559 C   0  0  0  0  0  0  0  0  0  0  0  0
    4.1500   -2.0318    1.8628 H   0  0  0  0  0  0  0  0  0  0  0  0
    3.9122   -2.3729    0.1429 H   0  0  0  0  0  0  0  0  0  0  0  0
    5.5485   -2.3402    0.8157 H   0  0  0  0  0  0  0  0  0  0  0  0
    4.9831   -0.2598   -0.4864 H   0  0  0  0  0  0  0  0  0  0  0  0
    5.3691    0.0968    1.2249 H   0  0  0  0  0  0  0  0  0  0  0  0
    1.3821    3.2956    0.5380 H   0  0  0  0  0  0  0  0  0  0  0  0
    2.5775    2.6663   -0.6292 H   0  0  0  0  0  0  0  0  0  0  0  0
   -0.4426    2.8408   -1.1190 H   0  0  0  0  0  0  0  0  0  0  0  0
    0.7692    3.9442   -1.7881 H   0  0  0  0  0  0  0  0  0  0  0  0
    0.7546    2.2404   -2.2716 H   0  0  0  0  0  0  0  0  0  0  0  0
   -0.8494   -2.5120   -0.0934 H   0  0  0  0  0  0  0  0  0  0  0  0
    0.4493   -2.4207   -1.3342 H   0  0  0  0  0  0  0  0  0  0  0  0
   -2.2237    1.6147    2.5175 H   0  0  0  0  0  0  0  0  0  0  0  0
   -2.4365   -0.0778    3.0367 H   0  0  0  0  0  0  0  0  0  0  0  0
    0.2101    1.4611    3.1247 H   0  0  0  0  0  0  0  0  0  0  0  0
   -0.8229    1.1392    4.5297 H   0  0  0  0  0  0  0  0  0  0  0  0
   -0.0342   -0.1990    3.6706 H   0  0  0  0  0  0  0  0  0  0  0  0
   -4.7937   -2.2021    0.3739 H   0  0  0  0  0  0  0  0  0  0  0  0
   -4.9732   -0.4901   -0.1167 H   0  0  0  0  0  0  0  0  0  0  0  0
   -3.4966   -2.6204   -1.7468 H   0  0  0  0  0  0  0  0  0  0  0  0
   -5.1205   -2.0038   -2.0956 H   0  0  0  0  0  0  0  0  0  0  0  0
   -3.7227   -0.9239   -2.1992 H   0  0  0  0  0  0  0  0  0  0  0  0
  1  2  1  0  0  0  0
  2  3  1  0  0  0  0
  3  4  2  0  0  0  0
  4  5  2  0  0  0  0
  4  6  1  0  0  0  0
  6  7  1  0  0  0  0
  7  8  1  0  0  0  0
  4  9  1  0  0  0  0
  9 10  1  0  0  0  0
 10 11  1  0  0  0  0
 11 12  1  0  0  0  0
 12 13  2  0  0  0  0
 12 14  2  0  0  0  0
 14 15  1  0  0  0  0
 15 16  1  0  0  0  0
 12 17  1  0  0  0  0
 17 18  1  0  0  0  0
 18 19  1  0  0  0  0
  1 20  1  0  0  0  0
  1 21  1  0  0  0  0
  1 22  1  0  0  0  0
  2 23  1  0  0  0  0
  2 24  1  0  0  0  0
  7 25  1  0  0  0  0
  7 26  1  0  0  0  0
  8 27  1  0  0  0  0
  8 28  1  0  0  0  0
  8 29  1  0  0  0  0
 10 30  1  0  0  0  0
 10 31  1  0  0  0  0
 15 32  1  0  0  0  0
 15 33  1  0  0  0  0
 16 34  1  0  0  0  0
 16 35  1  0  0  0  0
 16 36  1  0  0  0  0
 18 37  1  0  0  0  0
 18 38  1  0  0  0  0
 19 39  1  0  0  0  0
 19 40  1  0  0  0  0
 19 41  1  0  0  0  0
M  END
