 xtb: 6.7.1 (edcfbbe)
          04092505213D

 41 40  0     0  0            999 V2000
    3.2834    2.4880   -1.4464 C   0  0  0  0  0  0  0  0  0  0  0  0
    4.0257    1.1677   -1.4857 C   0  0  0  0  0  0  0  0  0  0  0  0
    3.8482    0.3903   -0.2893 O   0  0  0  0  0  0  0  0  0  0  0  0
    2.4567    0.0731    0.4072 P   0  0  0  0  0  0  0  0  0  0  0  0
    1.7967    1.4694    1.6207 S   0  0  0  0  0  0  0  0  0  0  0  0
    2.8214   -1.2886    1.1260 O   0  0  0  0  0  0  0  0  0  0  0  0
    2.7736   -1.4931    2.5545 C   0  0  0  0  0  0  0  0  0  0  0  0
    1.5765   -2.3370    2.9451 C   0  0  0  0  0  0  0  0  0  0  0  0
    1.2573   -0.5577   -1.2419 S   0  0  0  0  0  0  0  0  0  0  0  0
    0.1151   -1.6498   -0.3536 C   0  0  0  0  0  0  0  0  0  0  0  0
   -1.0256   -0.7752    0.7441 S   0  0  0  0  0  0  0  0  0  0  0  0
   -2.2831    0.0168   -0.7852 P   0  0  0  0  0  0  0  0  0  0  0  0
   -2.4286   -1.0622   -2.4108 S   0  0  0  0  0  0  0  0  0  0  0  0
   -1.7385    1.4574   -1.1195 O   0  0  0  0  0  0  0  0  0  0  0  0
   -1.2705    2.4710   -0.1988 C   0  0  0  0  0  0  0  0  0  0  0  0
   -2.2576    2.7814    0.9037 C   0  0  0  0  0  0  0  0  0  0  0  0
   -3.6635    0.3081   -0.0541 O   0  0  0  0  0  0  0  0  0  0  0  0
   -4.7076   -0.6765    0.0413 C   0  0  0  0  0  0  0  0  0  0  0  0
   -4.3175   -1.8491    0.9179 C   0  0  0  0  0  0  0  0  0  0  0  0
    3.5279    3.0664   -2.3316 H   0  0  0  0  0  0  0  0  0  0  0  0
    2.2079    2.3109   -1.4266 H   0  0  0  0  0  0  0  0  0  0  0  0
    3.5593    3.0524   -0.5585 H   0  0  0  0  0  0  0  0  0  0  0  0
    5.1055    1.3180   -1.5379 H   0  0  0  0  0  0  0  0  0  0  0  0
    3.6945    0.5641   -2.3360 H   0  0  0  0  0  0  0  0  0  0  0  0
    3.7118   -1.9954    2.7953 H   0  0  0  0  0  0  0  0  0  0  0  0
    2.7383   -0.5189    3.0524 H   0  0  0  0  0  0  0  0  0  0  0  0
    1.5939   -3.2886    2.4205 H   0  0  0  0  0  0  0  0  0  0  0  0
    1.6140   -2.5227    4.0137 H   0  0  0  0  0  0  0  0  0  0  0  0
    0.6503   -1.8126    2.7132 H   0  0  0  0  0  0  0  0  0  0  0  0
    0.6801   -2.3535    0.2513 H   0  0  0  0  0  0  0  0  0  0  0  0
   -0.4592   -2.1601   -1.1292 H   0  0  0  0  0  0  0  0  0  0  0  0
   -0.3174    2.1431    0.2266 H   0  0  0  0  0  0  0  0  0  0  0  0
   -1.1026    3.3334   -0.8458 H   0  0  0  0  0  0  0  0  0  0  0  0
   -2.3760    1.9193    1.5570 H   0  0  0  0  0  0  0  0  0  0  0  0
   -1.8733    3.6114    1.4889 H   0  0  0  0  0  0  0  0  0  0  0  0
   -3.2249    3.0467    0.4849 H   0  0  0  0  0  0  0  0  0  0  0  0
   -5.5482   -0.1219    0.4607 H   0  0  0  0  0  0  0  0  0  0  0  0
   -4.9535   -1.0175   -0.9693 H   0  0  0  0  0  0  0  0  0  0  0  0
   -3.5292   -2.4269    0.4381 H   0  0  0  0  0  0  0  0  0  0  0  0
   -3.9610   -1.4993    1.8835 H   0  0  0  0  0  0  0  0  0  0  0  0
   -5.1819   -2.4891    1.0632 H   0  0  0  0  0  0  0  0  0  0  0  0
  1  2  1  0  0  0  0
  2  3  1  0  0  0  0
  3  4  2  0  0  0  0
  4  5  2  0  0  0  0
  4  6  2  0  0  0  0
  6  7  1  0  0  0  0
  7  8  1  0  0  0  0
  4  9  1  0  0  0  0
  9 10  1  0  0  0  0
 10 11  1  0  0  0  0
 11 12  1  0  0  0  0
 12 13  2  0  0  0  0
 12 14  2  0  0  0  0
 14 15  1  0  0  0  0
 15 16  1  0  0  0  0
 12 17  2  0  0  0  0
 17 18  1  0  0  0  0
 18 19  1  0  0  0  0
  1 20  1  0  0  0  0
  1 21  1  0  0  0  0
  1 22  1  0  0  0  0
  2 23  1  0  0  0  0
  2 24  1  0  0  0  0
  7 25  1  0  0  0  0
  7 26  1  0  0  0  0
  8 27  1  0  0  0  0
  8 28  1  0  0  0  0
  8 29  1  0  0  0  0
 10 30  1  0  0  0  0
 10 31  1  0  0  0  0
 15 32  1  0  0  0  0
 15 33  1  0  0  0  0
 16 34  1  0  0  0  0
 16 35  1  0  0  0  0
 16 36  1  0  0  0  0
 18 37  1  0  0  0  0
 18 38  1  0  0  0  0
 19 39  1  0  0  0  0
 19 40  1  0  0  0  0
 19 41  1  0  0  0  0
M  END
