 xtb: 6.7.1 (edcfbbe)
          04032519423D

 20 20  0     0  0            999 V2000
    0.8480    1.3897   -0.6307 C   0  0  0  0  0  0  0  0  0  0  0  0
    1.5952    0.1827   -0.0479 C   0  0  0  0  0  0  0  0  0  0  0  0
    2.5751    0.1044   -0.5422 H   0  0  0  0  0  0  0  0  0  0  0  0
    0.7853   -1.1011   -0.3348 C   0  0  0  0  0  0  0  0  0  0  0  0
    1.2251   -1.9256    0.2439 H   0  0  0  0  0  0  0  0  0  0  0  0
   -0.6645   -0.9180    0.1444 C   0  0  0  0  0  0  0  0  0  0  0  0
   -1.2678   -1.7598   -0.2115 H   0  0  0  0  0  0  0  0  0  0  0  0
   -1.2615    0.3775   -0.4488 C   0  0  0  0  0  0  0  0  0  0  0  0
   -1.3138    0.2901   -1.5456 H   0  0  0  0  0  0  0  0  0  0  0  0
   -0.4571    1.4916   -0.1004 O   0  0  0  0  0  0  0  0  0  0  0  0
   -2.5398    0.6016    0.0110 O   0  0  0  0  0  0  0  0  0  0  0  0
   -0.7729   -0.9041    1.5436 O   0  0  0  0  0  0  0  0  0  0  0  0
    0.7502   -1.3915   -1.7087 O   0  0  0  0  0  0  0  0  0  0  0  0
    1.7538    0.2707    1.3496 O   0  0  0  0  0  0  0  0  0  0  0  0
    0.8043    1.2848   -1.7228 H   0  0  0  0  0  0  0  0  0  0  0  0
    1.3389    2.3274   -0.3674 H   0  0  0  0  0  0  0  0  0  0  0  0
   -2.5463    0.4683    0.9759 H   0  0  0  0  0  0  0  0  0  0  0  0
   -0.0546   -0.3490    1.8992 H   0  0  0  0  0  0  0  0  0  0  0  0
    1.5888   -1.7890   -1.9855 H   0  0  0  0  0  0  0  0  0  0  0  0
    2.2223    1.0871    1.5768 H   0  0  0  0  0  0  0  0  0  0  0  0
  1  2  1  0  0  0  0
  2  3  1  0  0  0  0
  2  4  1  0  0  0  0
  4  5  1  0  0  0  0
  4  6  1  0  0  0  0
  6  7  1  0  0  0  0
  6  8  1  0  0  0  0
  8  9  1  0  0  0  0
  1 10  1  0  0  0  0
  8 10  1  0  0  0  0
  8 11  1  0  0  0  0
  6 12  1  0  0  0  0
  4 13  1  0  0  0  0
  2 14  1  0  0  0  0
  1 15  1  0  0  0  0
  1 16  1  0  0  0  0
 11 17  1  0  0  0  0
 12 18  1  0  0  0  0
 13 19  1  0  0  0  0
 14 20  1  0  0  0  0
M  END
