 xtb: 6.7.1 (edcfbbe)
          04092505213D

 41 40  0     0  0            999 V2000
    1.8117   -3.2019    0.2010 C   0  0  0  0  0  0  0  0  0  0  0  0
    2.7856   -2.2624    0.8833 C   0  0  0  0  0  0  0  0  0  0  0  0
    2.1774   -0.9727    1.1051 O   0  0  0  0  0  0  0  0  0  0  0  0
    2.5456    0.3435    0.3043 P   0  0  0  0  0  0  0  0  0  0  0  0
    3.5346    0.0184   -1.3633 S   0  0  0  0  0  0  0  0  0  0  0  0
    3.2920    1.1433    1.4545 O   0  0  0  0  0  0  0  0  0  0  0  0
    3.4709    2.5708    1.5037 C   0  0  0  0  0  0  0  0  0  0  0  0
    4.0842    3.1319    0.2374 C   0  0  0  0  0  0  0  0  0  0  0  0
    0.6984    1.3643    0.1305 S   0  0  0  0  0  0  0  0  0  0  0  0
    0.1771    0.6129   -1.4314 C   0  0  0  0  0  0  0  0  0  0  0  0
   -0.6178   -1.0037   -1.2077 S   0  0  0  0  0  0  0  0  0  0  0  0
   -2.4792   -0.3094   -0.4746 P   0  0  0  0  0  0  0  0  0  0  0  0
   -2.8938    1.5936   -0.7335 S   0  0  0  0  0  0  0  0  0  0  0  0
   -2.6110   -0.8160    1.0295 O   0  0  0  0  0  0  0  0  0  0  0  0
   -2.1393   -0.0850    2.1754 C   0  0  0  0  0  0  0  0  0  0  0  0
   -0.9313   -0.7717    2.7817 C   0  0  0  0  0  0  0  0  0  0  0  0
   -3.3982   -1.3450   -1.2348 O   0  0  0  0  0  0  0  0  0  0  0  0
   -4.8076   -1.1150   -1.4450 C   0  0  0  0  0  0  0  0  0  0  0  0
   -5.5900   -1.1450   -0.1488 C   0  0  0  0  0  0  0  0  0  0  0  0
    2.2596   -4.1879    0.1329 H   0  0  0  0  0  0  0  0  0  0  0  0
    0.8866   -3.2647    0.7670 H   0  0  0  0  0  0  0  0  0  0  0  0
    1.5808   -2.8452   -0.8007 H   0  0  0  0  0  0  0  0  0  0  0  0
    3.6877   -2.1341    0.2776 H   0  0  0  0  0  0  0  0  0  0  0  0
    3.0575   -2.6206    1.8774 H   0  0  0  0  0  0  0  0  0  0  0  0
    2.4972    3.0289    1.6985 H   0  0  0  0  0  0  0  0  0  0  0  0
    4.1274    2.7168    2.3634 H   0  0  0  0  0  0  0  0  0  0  0  0
    3.4019    3.0016   -0.6018 H   0  0  0  0  0  0  0  0  0  0  0  0
    4.2805    4.1909    0.3705 H   0  0  0  0  0  0  0  0  0  0  0  0
    5.0154    2.6195    0.0070 H   0  0  0  0  0  0  0  0  0  0  0  0
    1.0533    0.4531   -2.0618 H   0  0  0  0  0  0  0  0  0  0  0  0
   -0.5268    1.3048   -1.8921 H   0  0  0  0  0  0  0  0  0  0  0  0
   -1.9107    0.9446    1.8796 H   0  0  0  0  0  0  0  0  0  0  0  0
   -2.9764   -0.0796    2.8770 H   0  0  0  0  0  0  0  0  0  0  0  0
   -0.0907   -0.7602    2.0919 H   0  0  0  0  0  0  0  0  0  0  0  0
   -0.6445   -0.2504    3.6893 H   0  0  0  0  0  0  0  0  0  0  0  0
   -1.1742   -1.8034    3.0203 H   0  0  0  0  0  0  0  0  0  0  0  0
   -4.9285   -0.1498   -1.9468 H   0  0  0  0  0  0  0  0  0  0  0  0
   -5.1035   -1.9222   -2.1162 H   0  0  0  0  0  0  0  0  0  0  0  0
   -6.6512   -1.0806   -0.3683 H   0  0  0  0  0  0  0  0  0  0  0  0
   -5.3859   -2.0654    0.3918 H   0  0  0  0  0  0  0  0  0  0  0  0
   -5.3059   -0.2985    0.4750 H   0  0  0  0  0  0  0  0  0  0  0  0
  1  2  1  0  0  0  0
  2  3  1  0  0  0  0
  3  4  2  0  0  0  0
  4  5  2  0  0  0  0
  4  6  2  0  0  0  0
  6  7  1  0  0  0  0
  7  8  1  0  0  0  0
  4  9  1  0  0  0  0
  9 10  1  0  0  0  0
 10 11  1  0  0  0  0
 11 12  1  0  0  0  0
 12 13  2  0  0  0  0
 12 14  2  0  0  0  0
 14 15  1  0  0  0  0
 15 16  1  0  0  0  0
 12 17  2  0  0  0  0
 17 18  1  0  0  0  0
 18 19  1  0  0  0  0
  1 20  1  0  0  0  0
  1 21  1  0  0  0  0
  1 22  1  0  0  0  0
  2 23  1  0  0  0  0
  2 24  1  0  0  0  0
  7 25  1  0  0  0  0
  7 26  1  0  0  0  0
  8 27  1  0  0  0  0
  8 28  1  0  0  0  0
  8 29  1  0  0  0  0
 10 30  1  0  0  0  0
 10 31  1  0  0  0  0
 15 32  1  0  0  0  0
 15 33  1  0  0  0  0
 16 34  1  0  0  0  0
 16 35  1  0  0  0  0
 16 36  1  0  0  0  0
 18 37  1  0  0  0  0
 18 38  1  0  0  0  0
 19 39  1  0  0  0  0
 19 40  1  0  0  0  0
 19 41  1  0  0  0  0
M  END
