 xtb: 6.7.1 (edcfbbe)
          04092505213D

 41 40  0     0  0            999 V2000
    3.8969    0.9807   -1.6105 C   0  0  0  0  0  0  0  0  0  0  0  0
    2.3850    1.0564   -1.5827 C   0  0  0  0  0  0  0  0  0  0  0  0
    1.8346   -0.0181   -0.8059 O   0  0  0  0  0  0  0  0  0  0  0  0
    1.8258   -0.0041    0.7792 P   0  0  0  0  0  0  0  0  0  0  0  0
    1.9859    1.7654    1.6050 S   0  0  0  0  0  0  0  0  0  0  0  0
    3.0368   -1.0164    1.0348 O   0  0  0  0  0  0  0  0  0  0  0  0
    3.2695   -1.7589    2.2435 C   0  0  0  0  0  0  0  0  0  0  0  0
    3.1709   -0.9108    3.4948 C   0  0  0  0  0  0  0  0  0  0  0  0
    0.1098   -1.1556    1.2578 S   0  0  0  0  0  0  0  0  0  0  0  0
   -0.0094   -2.1836   -0.2196 C   0  0  0  0  0  0  0  0  0  0  0  0
   -0.6275   -1.3461   -1.7387 S   0  0  0  0  0  0  0  0  0  0  0  0
   -1.8429    0.2034   -1.0132 P   0  0  0  0  0  0  0  0  0  0  0  0
   -2.9661    1.0430   -2.3796 S   0  0  0  0  0  0  0  0  0  0  0  0
   -0.7622    1.1693   -0.3464 O   0  0  0  0  0  0  0  0  0  0  0  0
   -1.0774    2.5560   -0.0952 C   0  0  0  0  0  0  0  0  0  0  0  0
   -2.1148    2.7147    0.9949 C   0  0  0  0  0  0  0  0  0  0  0  0
   -2.6334   -0.3590    0.2508 O   0  0  0  0  0  0  0  0  0  0  0  0
   -3.9388   -0.9499    0.1317 C   0  0  0  0  0  0  0  0  0  0  0  0
   -3.8615   -2.3912   -0.3312 C   0  0  0  0  0  0  0  0  0  0  0  0
    4.2868    1.7690   -2.2465 H   0  0  0  0  0  0  0  0  0  0  0  0
    4.2854    1.1101   -0.6010 H   0  0  0  0  0  0  0  0  0  0  0  0
    4.2169    0.0142   -1.9900 H   0  0  0  0  0  0  0  0  0  0  0  0
    1.9478    0.9235   -2.5743 H   0  0  0  0  0  0  0  0  0  0  0  0
    2.0517    2.0093   -1.1583 H   0  0  0  0  0  0  0  0  0  0  0  0
    2.5473   -2.5796    2.2839 H   0  0  0  0  0  0  0  0  0  0  0  0
    4.2768   -2.1579    2.1109 H   0  0  0  0  0  0  0  0  0  0  0  0
    2.1524   -0.5424    3.6182 H   0  0  0  0  0  0  0  0  0  0  0  0
    3.4369   -1.5111    4.3589 H   0  0  0  0  0  0  0  0  0  0  0  0
    3.8399   -0.0556    3.4313 H   0  0  0  0  0  0  0  0  0  0  0  0
   -0.6961   -2.9878    0.0323 H   0  0  0  0  0  0  0  0  0  0  0  0
    0.9705   -2.5703   -0.4908 H   0  0  0  0  0  0  0  0  0  0  0  0
   -0.1221    2.9939    0.2008 H   0  0  0  0  0  0  0  0  0  0  0  0
   -1.4216    3.0034   -1.0332 H   0  0  0  0  0  0  0  0  0  0  0  0
   -2.2263    3.7693    1.2265 H   0  0  0  0  0  0  0  0  0  0  0  0
   -3.0729    2.3200    0.6603 H   0  0  0  0  0  0  0  0  0  0  0  0
   -1.8000    2.1812    1.8888 H   0  0  0  0  0  0  0  0  0  0  0  0
   -4.3583   -0.8723    1.1356 H   0  0  0  0  0  0  0  0  0  0  0  0
   -4.5300   -0.3492   -0.5679 H   0  0  0  0  0  0  0  0  0  0  0  0
   -3.4217   -2.4414   -1.3266 H   0  0  0  0  0  0  0  0  0  0  0  0
   -3.2595   -2.9760    0.3591 H   0  0  0  0  0  0  0  0  0  0  0  0
   -4.8635   -2.8065   -0.3697 H   0  0  0  0  0  0  0  0  0  0  0  0
  1  2  1  0  0  0  0
  2  3  1  0  0  0  0
  3  4  2  0  0  0  0
  4  5  2  0  0  0  0
  4  6  1  0  0  0  0
  6  7  1  0  0  0  0
  7  8  1  0  0  0  0
  4  9  1  0  0  0  0
  9 10  1  0  0  0  0
 10 11  1  0  0  0  0
 11 12  1  0  0  0  0
 12 13  2  0  0  0  0
 12 14  1  0  0  0  0
 14 15  1  0  0  0  0
 15 16  1  0  0  0  0
 12 17  2  0  0  0  0
 17 18  1  0  0  0  0
 18 19  1  0  0  0  0
  1 20  1  0  0  0  0
  1 21  1  0  0  0  0
  1 22  1  0  0  0  0
  2 23  1  0  0  0  0
  2 24  1  0  0  0  0
  7 25  1  0  0  0  0
  7 26  1  0  0  0  0
  8 27  1  0  0  0  0
  8 28  1  0  0  0  0
  8 29  1  0  0  0  0
 10 30  1  0  0  0  0
 10 31  1  0  0  0  0
 15 32  1  0  0  0  0
 15 33  1  0  0  0  0
 16 34  1  0  0  0  0
 16 35  1  0  0  0  0
 16 36  1  0  0  0  0
 18 37  1  0  0  0  0
 18 38  1  0  0  0  0
 19 39  1  0  0  0  0
 19 40  1  0  0  0  0
 19 41  1  0  0  0  0
M  END
