 xtb: 6.7.1 (edcfbbe)
          04092505203D

 41 40  0     0  0            999 V2000
    5.2218   -1.1526   -0.2302 C   0  0  0  0  0  0  0  0  0  0  0  0
    3.8718   -1.6147    0.2783 C   0  0  0  0  0  0  0  0  0  0  0  0
    2.8307   -1.3332   -0.6926 O   0  0  0  0  0  0  0  0  0  0  0  0
    1.9356   -0.0356   -0.6825 P   0  0  0  0  0  0  0  0  0  0  0  0
    0.8408    0.0683   -2.2992 S   0  0  0  0  0  0  0  0  0  0  0  0
    2.9894    1.1428   -0.5206 O   0  0  0  0  0  0  0  0  0  0  0  0
    2.6728    2.5231   -0.7667 C   0  0  0  0  0  0  0  0  0  0  0  0
    1.9402    3.1492    0.4027 C   0  0  0  0  0  0  0  0  0  0  0  0
    1.0221   -0.0877    1.2499 S   0  0  0  0  0  0  0  0  0  0  0  0
    0.2089   -1.7034    1.1484 C   0  0  0  0  0  0  0  0  0  0  0  0
   -1.0816   -1.8248   -0.1326 S   0  0  0  0  0  0  0  0  0  0  0  0
   -2.1991   -0.0872    0.3182 P   0  0  0  0  0  0  0  0  0  0  0  0
   -1.6156    1.7336   -0.1365 S   0  0  0  0  0  0  0  0  0  0  0  0
   -2.4554   -0.3579    1.8533 O   0  0  0  0  0  0  0  0  0  0  0  0
   -2.6200    0.6749    2.8521 C   0  0  0  0  0  0  0  0  0  0  0  0
   -1.5811    0.4888    3.9401 C   0  0  0  0  0  0  0  0  0  0  0  0
   -3.6159   -0.4417   -0.3172 O   0  0  0  0  0  0  0  0  0  0  0  0
   -3.9746   -0.0681   -1.6563 C   0  0  0  0  0  0  0  0  0  0  0  0
   -3.1634   -0.8230   -2.6903 C   0  0  0  0  0  0  0  0  0  0  0  0
    5.9885   -1.4538    0.4769 H   0  0  0  0  0  0  0  0  0  0  0  0
    5.4288   -1.6021   -1.1977 H   0  0  0  0  0  0  0  0  0  0  0  0
    5.2358   -0.0715   -0.3366 H   0  0  0  0  0  0  0  0  0  0  0  0
    3.6194   -1.1280    1.2242 H   0  0  0  0  0  0  0  0  0  0  0  0
    3.8458   -2.6998    0.3953 H   0  0  0  0  0  0  0  0  0  0  0  0
    3.6453    2.9915   -0.9265 H   0  0  0  0  0  0  0  0  0  0  0  0
    2.0750    2.5889   -1.6818 H   0  0  0  0  0  0  0  0  0  0  0  0
    1.8645    4.2200    0.2445 H   0  0  0  0  0  0  0  0  0  0  0  0
    0.9332    2.7422    0.4820 H   0  0  0  0  0  0  0  0  0  0  0  0
    2.4747    2.9568    1.3291 H   0  0  0  0  0  0  0  0  0  0  0  0
   -0.2366   -1.8774    2.1255 H   0  0  0  0  0  0  0  0  0  0  0  0
    0.9351   -2.4756    0.9030 H   0  0  0  0  0  0  0  0  0  0  0  0
   -2.5176    1.6532    2.3710 H   0  0  0  0  0  0  0  0  0  0  0  0
   -3.6339    0.5615    3.2394 H   0  0  0  0  0  0  0  0  0  0  0  0
   -1.6760   -0.4982    4.3835 H   0  0  0  0  0  0  0  0  0  0  0  0
   -0.5807    0.6005    3.5263 H   0  0  0  0  0  0  0  0  0  0  0  0
   -1.7345    1.2416    4.7063 H   0  0  0  0  0  0  0  0  0  0  0  0
   -5.0366   -0.3085   -1.7217 H   0  0  0  0  0  0  0  0  0  0  0  0
   -3.8281    1.0116   -1.7675 H   0  0  0  0  0  0  0  0  0  0  0  0
   -2.1130   -0.5321   -2.6316 H   0  0  0  0  0  0  0  0  0  0  0  0
   -3.2370   -1.8947   -2.5213 H   0  0  0  0  0  0  0  0  0  0  0  0
   -3.5314   -0.5872   -3.6836 H   0  0  0  0  0  0  0  0  0  0  0  0
  1  2  1  0  0  0  0
  2  3  1  0  0  0  0
  3  4  2  0  0  0  0
  4  5  2  0  0  0  0
  4  6  2  0  0  0  0
  6  7  1  0  0  0  0
  7  8  1  0  0  0  0
  4  9  1  0  0  0  0
  9 10  1  0  0  0  0
 10 11  1  0  0  0  0
 11 12  1  0  0  0  0
 12 13  2  0  0  0  0
 12 14  2  0  0  0  0
 14 15  1  0  0  0  0
 15 16  1  0  0  0  0
 12 17  2  0  0  0  0
 17 18  1  0  0  0  0
 18 19  1  0  0  0  0
  1 20  1  0  0  0  0
  1 21  1  0  0  0  0
  1 22  1  0  0  0  0
  2 23  1  0  0  0  0
  2 24  1  0  0  0  0
  7 25  1  0  0  0  0
  7 26  1  0  0  0  0
  8 27  1  0  0  0  0
  8 28  1  0  0  0  0
  8 29  1  0  0  0  0
 10 30  1  0  0  0  0
 10 31  1  0  0  0  0
 15 32  1  0  0  0  0
 15 33  1  0  0  0  0
 16 34  1  0  0  0  0
 16 35  1  0  0  0  0
 16 36  1  0  0  0  0
 18 37  1  0  0  0  0
 18 38  1  0  0  0  0
 19 39  1  0  0  0  0
 19 40  1  0  0  0  0
 19 41  1  0  0  0  0
M  END
