 xtb: 6.7.1 (edcfbbe)
          04092505203D

 41 40  0     0  0            999 V2000
    3.0555   -1.3196   -2.9756 C   0  0  0  0  0  0  0  0  0  0  0  0
    3.3884   -0.3923   -1.8243 C   0  0  0  0  0  0  0  0  0  0  0  0
    2.7433   -0.8942   -0.6337 O   0  0  0  0  0  0  0  0  0  0  0  0
    2.0647    0.0187    0.4641 P   0  0  0  0  0  0  0  0  0  0  0  0
    1.4342    1.7883   -0.1453 S   0  0  0  0  0  0  0  0  0  0  0  0
    3.2344    0.1593    1.5379 O   0  0  0  0  0  0  0  0  0  0  0  0
    3.2017    1.1318    2.5943 C   0  0  0  0  0  0  0  0  0  0  0  0
    2.1128    0.8253    3.6025 C   0  0  0  0  0  0  0  0  0  0  0  0
    0.8235   -1.4204    1.3636 S   0  0  0  0  0  0  0  0  0  0  0  0
   -0.1038   -2.0674   -0.0738 C   0  0  0  0  0  0  0  0  0  0  0  0
   -0.3646   -0.8835   -1.4209 S   0  0  0  0  0  0  0  0  0  0  0  0
   -1.8956    0.2918   -0.5814 P   0  0  0  0  0  0  0  0  0  0  0  0
   -2.5062    1.8440   -1.6062 S   0  0  0  0  0  0  0  0  0  0  0  0
   -1.2665    0.5733    0.8442 O   0  0  0  0  0  0  0  0  0  0  0  0
   -1.9110    1.4395    1.8022 C   0  0  0  0  0  0  0  0  0  0  0  0
   -2.6287    0.6182    2.8530 C   0  0  0  0  0  0  0  0  0  0  0  0
   -3.0616   -0.7350   -0.2047 O   0  0  0  0  0  0  0  0  0  0  0  0
   -4.1386   -1.0242   -1.1100 C   0  0  0  0  0  0  0  0  0  0  0  0
   -3.6703   -1.8190   -2.3122 C   0  0  0  0  0  0  0  0  0  0  0  0
    3.3824   -2.3290   -2.7447 H   0  0  0  0  0  0  0  0  0  0  0  0
    1.9822   -1.3251   -3.1522 H   0  0  0  0  0  0  0  0  0  0  0  0
    3.5635   -0.9715   -3.8690 H   0  0  0  0  0  0  0  0  0  0  0  0
    3.0345    0.6269   -2.0155 H   0  0  0  0  0  0  0  0  0  0  0  0
    4.4615   -0.3685   -1.6231 H   0  0  0  0  0  0  0  0  0  0  0  0
    4.1959    1.0739    3.0389 H   0  0  0  0  0  0  0  0  0  0  0  0
    3.0494    2.1207    2.1485 H   0  0  0  0  0  0  0  0  0  0  0  0
    2.1642    1.5358    4.4211 H   0  0  0  0  0  0  0  0  0  0  0  0
    1.1377    0.9063    3.1214 H   0  0  0  0  0  0  0  0  0  0  0  0
    2.2275   -0.1849    3.9872 H   0  0  0  0  0  0  0  0  0  0  0  0
   -1.0638   -2.4068    0.3099 H   0  0  0  0  0  0  0  0  0  0  0  0
    0.4630   -2.8856   -0.5118 H   0  0  0  0  0  0  0  0  0  0  0  0
   -1.1010    2.0329    2.2337 H   0  0  0  0  0  0  0  0  0  0  0  0
   -2.5946    2.1090    1.2694 H   0  0  0  0  0  0  0  0  0  0  0  0
   -1.9303   -0.0672    3.3264 H   0  0  0  0  0  0  0  0  0  0  0  0
   -3.0440    1.2857    3.6012 H   0  0  0  0  0  0  0  0  0  0  0  0
   -3.4315    0.0447    2.3970 H   0  0  0  0  0  0  0  0  0  0  0  0
   -4.8504   -1.5869   -0.5047 H   0  0  0  0  0  0  0  0  0  0  0  0
   -4.5838   -0.0765   -1.4287 H   0  0  0  0  0  0  0  0  0  0  0  0
   -2.9740   -1.2214   -2.9005 H   0  0  0  0  0  0  0  0  0  0  0  0
   -3.1725   -2.7327   -1.9985 H   0  0  0  0  0  0  0  0  0  0  0  0
   -4.5259   -2.0699   -2.9309 H   0  0  0  0  0  0  0  0  0  0  0  0
  1  2  1  0  0  0  0
  2  3  1  0  0  0  0
  3  4  2  0  0  0  0
  4  5  2  0  0  0  0
  4  6  2  0  0  0  0
  6  7  1  0  0  0  0
  7  8  1  0  0  0  0
  4  9  1  0  0  0  0
  9 10  1  0  0  0  0
 10 11  1  0  0  0  0
 11 12  1  0  0  0  0
 12 13  2  0  0  0  0
 12 14  2  0  0  0  0
 14 15  1  0  0  0  0
 15 16  1  0  0  0  0
 12 17  2  0  0  0  0
 17 18  1  0  0  0  0
 18 19  1  0  0  0  0
  1 20  1  0  0  0  0
  1 21  1  0  0  0  0
  1 22  1  0  0  0  0
  2 23  1  0  0  0  0
  2 24  1  0  0  0  0
  7 25  1  0  0  0  0
  7 26  1  0  0  0  0
  8 27  1  0  0  0  0
  8 28  1  0  0  0  0
  8 29  1  0  0  0  0
 10 30  1  0  0  0  0
 10 31  1  0  0  0  0
 15 32  1  0  0  0  0
 15 33  1  0  0  0  0
 16 34  1  0  0  0  0
 16 35  1  0  0  0  0
 16 36  1  0  0  0  0
 18 37  1  0  0  0  0
 18 38  1  0  0  0  0
 19 39  1  0  0  0  0
 19 40  1  0  0  0  0
 19 41  1  0  0  0  0
M  END
