 xtb: 6.7.1 (edcfbbe)
          04092505203D

 41 40  0     0  0            999 V2000
    4.5281   -1.8632   -0.3192 C   0  0  0  0  0  0  0  0  0  0  0  0
    3.9356   -1.4105   -1.6371 C   0  0  0  0  0  0  0  0  0  0  0  0
    3.2226   -0.1562   -1.5325 O   0  0  0  0  0  0  0  0  0  0  0  0
    1.9312    0.1682   -0.6684 P   0  0  0  0  0  0  0  0  0  0  0  0
    1.2478    1.8844   -1.3122 S   0  0  0  0  0  0  0  0  0  0  0  0
    2.3095    0.0985    0.8829 O   0  0  0  0  0  0  0  0  0  0  0  0
    2.6644    1.2767    1.6248 C   0  0  0  0  0  0  0  0  0  0  0  0
    4.0603    1.7470    1.2755 C   0  0  0  0  0  0  0  0  0  0  0  0
    0.8385   -1.6341   -0.8569 S   0  0  0  0  0  0  0  0  0  0  0  0
   -0.0399   -1.8487    0.7328 C   0  0  0  0  0  0  0  0  0  0  0  0
   -1.8374   -1.7827    0.5625 S   0  0  0  0  0  0  0  0  0  0  0  0
   -1.9924    0.3279    0.4045 P   0  0  0  0  0  0  0  0  0  0  0  0
   -0.8104    1.3275    1.6024 S   0  0  0  0  0  0  0  0  0  0  0  0
   -3.5363    0.6433    0.5904 O   0  0  0  0  0  0  0  0  0  0  0  0
   -4.1355    0.8579    1.8809 C   0  0  0  0  0  0  0  0  0  0  0  0
   -4.1367   -0.3953    2.7322 C   0  0  0  0  0  0  0  0  0  0  0  0
   -1.7338    0.6781   -1.1095 O   0  0  0  0  0  0  0  0  0  0  0  0
   -2.1788   -0.0655   -2.2701 C   0  0  0  0  0  0  0  0  0  0  0  0
   -3.6767   -0.2720   -2.2999 C   0  0  0  0  0  0  0  0  0  0  0  0
    5.1959   -1.1020    0.0755 H   0  0  0  0  0  0  0  0  0  0  0  0
    3.7402   -2.0533    0.4062 H   0  0  0  0  0  0  0  0  0  0  0  0
    5.0884   -2.7788   -0.4817 H   0  0  0  0  0  0  0  0  0  0  0  0
    3.2522   -2.1626   -2.0382 H   0  0  0  0  0  0  0  0  0  0  0  0
    4.7125   -1.1917   -2.3716 H   0  0  0  0  0  0  0  0  0  0  0  0
    1.9268    2.0588    1.4172 H   0  0  0  0  0  0  0  0  0  0  0  0
    2.5797    0.9722    2.6690 H   0  0  0  0  0  0  0  0  0  0  0  0
    4.2937    2.6351    1.8540 H   0  0  0  0  0  0  0  0  0  0  0  0
    4.7882    0.9709    1.4958 H   0  0  0  0  0  0  0  0  0  0  0  0
    4.1063    1.9925    0.2144 H   0  0  0  0  0  0  0  0  0  0  0  0
    0.2875   -1.0760    1.4290 H   0  0  0  0  0  0  0  0  0  0  0  0
    0.1995   -2.8457    1.0919 H   0  0  0  0  0  0  0  0  0  0  0  0
   -3.5930    1.6645    2.3841 H   0  0  0  0  0  0  0  0  0  0  0  0
   -5.1484    1.1855    1.6426 H   0  0  0  0  0  0  0  0  0  0  0  0
   -4.7195   -0.2148    3.6297 H   0  0  0  0  0  0  0  0  0  0  0  0
   -4.5686   -1.2276    2.1824 H   0  0  0  0  0  0  0  0  0  0  0  0
   -3.1186   -0.6521    3.0196 H   0  0  0  0  0  0  0  0  0  0  0  0
   -1.8337    0.5532   -3.1006 H   0  0  0  0  0  0  0  0  0  0  0  0
   -1.6501   -1.0238   -2.2862 H   0  0  0  0  0  0  0  0  0  0  0  0
   -4.1897    0.6814   -2.2031 H   0  0  0  0  0  0  0  0  0  0  0  0
   -3.9476   -0.7327   -3.2449 H   0  0  0  0  0  0  0  0  0  0  0  0
   -3.9845   -0.9241   -1.4850 H   0  0  0  0  0  0  0  0  0  0  0  0
  1  2  1  0  0  0  0
  2  3  1  0  0  0  0
  3  4  2  0  0  0  0
  4  5  2  0  0  0  0
  4  6  1  0  0  0  0
  6  7  1  0  0  0  0
  7  8  1  0  0  0  0
  4  9  1  0  0  0  0
  9 10  1  0  0  0  0
 10 11  1  0  0  0  0
 11 12  1  0  0  0  0
 12 13  2  0  0  0  0
 12 14  2  0  0  0  0
 14 15  1  0  0  0  0
 15 16  1  0  0  0  0
 12 17  2  0  0  0  0
 17 18  1  0  0  0  0
 18 19  1  0  0  0  0
  1 20  1  0  0  0  0
  1 21  1  0  0  0  0
  1 22  1  0  0  0  0
  2 23  1  0  0  0  0
  2 24  1  0  0  0  0
  7 25  1  0  0  0  0
  7 26  1  0  0  0  0
  8 27  1  0  0  0  0
  8 28  1  0  0  0  0
  8 29  1  0  0  0  0
 10 30  1  0  0  0  0
 10 31  1  0  0  0  0
 15 32  1  0  0  0  0
 15 33  1  0  0  0  0
 16 34  1  0  0  0  0
 16 35  1  0  0  0  0
 16 36  1  0  0  0  0
 18 37  1  0  0  0  0
 18 38  1  0  0  0  0
 19 39  1  0  0  0  0
 19 40  1  0  0  0  0
 19 41  1  0  0  0  0
M  END
