 xtb: 6.7.1 (edcfbbe)
          04092505203D

 41 40  0     0  0            999 V2000
    2.2126    1.9803   -2.7992 C   0  0  0  0  0  0  0  0  0  0  0  0
    2.4711    0.7889   -1.9025 C   0  0  0  0  0  0  0  0  0  0  0  0
    1.9185    1.0961   -0.5960 O   0  0  0  0  0  0  0  0  0  0  0  0
    2.0348    0.1323    0.6446 P   0  0  0  0  0  0  0  0  0  0  0  0
    1.3792    1.0425    2.2478 S   0  0  0  0  0  0  0  0  0  0  0  0
    3.5825   -0.2330    0.5861 O   0  0  0  0  0  0  0  0  0  0  0  0
    4.2080   -1.3387    1.2636 C   0  0  0  0  0  0  0  0  0  0  0  0
    3.9513   -1.3351    2.7559 C   0  0  0  0  0  0  0  0  0  0  0  0
    1.0960   -1.7271    0.1615 S   0  0  0  0  0  0  0  0  0  0  0  0
   -0.2502   -1.7208    1.3796 C   0  0  0  0  0  0  0  0  0  0  0  0
   -1.9147   -1.7543    0.6608 S   0  0  0  0  0  0  0  0  0  0  0  0
   -1.9759    0.0432   -0.4399 P   0  0  0  0  0  0  0  0  0  0  0  0
   -0.9600    0.2241   -2.1094 S   0  0  0  0  0  0  0  0  0  0  0  0
   -1.6189    1.0683    0.7136 O   0  0  0  0  0  0  0  0  0  0  0  0
   -1.2475    2.4341    0.4445 C   0  0  0  0  0  0  0  0  0  0  0  0
   -2.3863    3.2254   -0.1597 C   0  0  0  0  0  0  0  0  0  0  0  0
   -3.5392    0.2615   -0.6331 O   0  0  0  0  0  0  0  0  0  0  0  0
   -4.2491   -0.2362   -1.7790 C   0  0  0  0  0  0  0  0  0  0  0  0
   -4.3405   -1.7484   -1.7722 C   0  0  0  0  0  0  0  0  0  0  0  0
    2.6323    2.8794   -2.3572 H   0  0  0  0  0  0  0  0  0  0  0  0
    2.6722    1.8010   -3.7655 H   0  0  0  0  0  0  0  0  0  0  0  0
    1.1425    2.1146   -2.9352 H   0  0  0  0  0  0  0  0  0  0  0  0
    3.5384    0.5961   -1.7838 H   0  0  0  0  0  0  0  0  0  0  0  0
    1.9718   -0.1067   -2.2827 H   0  0  0  0  0  0  0  0  0  0  0  0
    3.8465   -2.2653    0.8092 H   0  0  0  0  0  0  0  0  0  0  0  0
    5.2682   -1.2056    1.0416 H   0  0  0  0  0  0  0  0  0  0  0  0
    4.2489   -0.3836    3.1902 H   0  0  0  0  0  0  0  0  0  0  0  0
    2.8918   -1.4864    2.9575 H   0  0  0  0  0  0  0  0  0  0  0  0
    4.5182   -2.1357    3.2199 H   0  0  0  0  0  0  0  0  0  0  0  0
   -0.1378   -0.8391    2.0181 H   0  0  0  0  0  0  0  0  0  0  0  0
   -0.1803   -2.6399    1.9567 H   0  0  0  0  0  0  0  0  0  0  0  0
   -0.9519    2.8177    1.4227 H   0  0  0  0  0  0  0  0  0  0  0  0
   -0.3755    2.4311   -0.2190 H   0  0  0  0  0  0  0  0  0  0  0  0
   -2.0948    4.2683   -0.2361 H   0  0  0  0  0  0  0  0  0  0  0  0
   -2.6149    2.8466   -1.1553 H   0  0  0  0  0  0  0  0  0  0  0  0
   -3.2725    3.1395    0.4636 H   0  0  0  0  0  0  0  0  0  0  0  0
   -5.2323    0.2295   -1.7021 H   0  0  0  0  0  0  0  0  0  0  0  0
   -3.7391    0.1142   -2.6827 H   0  0  0  0  0  0  0  0  0  0  0  0
   -4.7629   -2.0972   -0.8333 H   0  0  0  0  0  0  0  0  0  0  0  0
   -4.9663   -2.0763   -2.5960 H   0  0  0  0  0  0  0  0  0  0  0  0
   -3.3467   -2.1803   -1.8886 H   0  0  0  0  0  0  0  0  0  0  0  0
  1  2  1  0  0  0  0
  2  3  1  0  0  0  0
  3  4  2  0  0  0  0
  4  5  2  0  0  0  0
  4  6  2  0  0  0  0
  6  7  1  0  0  0  0
  7  8  1  0  0  0  0
  4  9  1  0  0  0  0
  9 10  1  0  0  0  0
 10 11  1  0  0  0  0
 11 12  1  0  0  0  0
 12 13  2  0  0  0  0
 12 14  2  0  0  0  0
 14 15  1  0  0  0  0
 15 16  1  0  0  0  0
 12 17  2  0  0  0  0
 17 18  1  0  0  0  0
 18 19  1  0  0  0  0
  1 20  1  0  0  0  0
  1 21  1  0  0  0  0
  1 22  1  0  0  0  0
  2 23  1  0  0  0  0
  2 24  1  0  0  0  0
  7 25  1  0  0  0  0
  7 26  1  0  0  0  0
  8 27  1  0  0  0  0
  8 28  1  0  0  0  0
  8 29  1  0  0  0  0
 10 30  1  0  0  0  0
 10 31  1  0  0  0  0
 15 32  1  0  0  0  0
 15 33  1  0  0  0  0
 16 34  1  0  0  0  0
 16 35  1  0  0  0  0
 16 36  1  0  0  0  0
 18 37  1  0  0  0  0
 18 38  1  0  0  0  0
 19 39  1  0  0  0  0
 19 40  1  0  0  0  0
 19 41  1  0  0  0  0
M  END
