 xtb: 6.7.1 (edcfbbe)
          04092505203D

 41 40  0     0  0            999 V2000
    3.4432   -2.0415   -2.2349 C   0  0  0  0  0  0  0  0  0  0  0  0
    4.0079   -0.7117   -1.7779 C   0  0  0  0  0  0  0  0  0  0  0  0
    3.5915   -0.3803   -0.4443 O   0  0  0  0  0  0  0  0  0  0  0  0
    2.0878    0.0184   -0.0783 P   0  0  0  0  0  0  0  0  0  0  0  0
    1.2411    1.0754   -1.5058 S   0  0  0  0  0  0  0  0  0  0  0  0
    2.3060    0.6051    1.3706 O   0  0  0  0  0  0  0  0  0  0  0  0
    3.2667    1.6233    1.7150 C   0  0  0  0  0  0  0  0  0  0  0  0
    2.9013    2.9711    1.1265 C   0  0  0  0  0  0  0  0  0  0  0  0
    1.1129   -1.7661    0.4702 S   0  0  0  0  0  0  0  0  0  0  0  0
   -0.2219   -1.8002   -0.7753 C   0  0  0  0  0  0  0  0  0  0  0  0
   -1.8898   -1.7447   -0.0775 S   0  0  0  0  0  0  0  0  0  0  0  0
   -2.0550    0.3307    0.3768 P   0  0  0  0  0  0  0  0  0  0  0  0
   -0.7624    1.1105    1.6257 S   0  0  0  0  0  0  0  0  0  0  0  0
   -3.5877    0.4448    0.7825 O   0  0  0  0  0  0  0  0  0  0  0  0
   -4.2726   -0.4267    1.7020 C   0  0  0  0  0  0  0  0  0  0  0  0
   -3.5715   -0.5379    3.0393 C   0  0  0  0  0  0  0  0  0  0  0  0
   -2.0180    1.1429   -0.9708 O   0  0  0  0  0  0  0  0  0  0  0  0
   -2.9420    0.9951   -2.0786 C   0  0  0  0  0  0  0  0  0  0  0  0
   -2.3641    0.0984   -3.1562 C   0  0  0  0  0  0  0  0  0  0  0  0
    3.6537   -2.8134   -1.4992 H   0  0  0  0  0  0  0  0  0  0  0  0
    2.3649   -1.9598   -2.3633 H   0  0  0  0  0  0  0  0  0  0  0  0
    3.8916   -2.3142   -3.1847 H   0  0  0  0  0  0  0  0  0  0  0  0
    3.6901    0.0928   -2.4493 H   0  0  0  0  0  0  0  0  0  0  0  0
    5.0966   -0.7358   -1.7142 H   0  0  0  0  0  0  0  0  0  0  0  0
    3.2280    1.6442    2.8055 H   0  0  0  0  0  0  0  0  0  0  0  0
    4.2551    1.2983    1.3804 H   0  0  0  0  0  0  0  0  0  0  0  0
    3.5756    3.7302    1.5096 H   0  0  0  0  0  0  0  0  0  0  0  0
    2.9740    2.9444    0.0400 H   0  0  0  0  0  0  0  0  0  0  0  0
    1.8781    3.2254    1.3975 H   0  0  0  0  0  0  0  0  0  0  0  0
   -0.1630   -2.7508   -1.2989 H   0  0  0  0  0  0  0  0  0  0  0  0
   -0.0806   -0.9522   -1.4528 H   0  0  0  0  0  0  0  0  0  0  0  0
   -5.2567    0.0341    1.8050 H   0  0  0  0  0  0  0  0  0  0  0  0
   -4.3671   -1.4096    1.2323 H   0  0  0  0  0  0  0  0  0  0  0  0
   -2.5942   -1.0029    2.9139 H   0  0  0  0  0  0  0  0  0  0  0  0
   -3.4262    0.4480    3.4750 H   0  0  0  0  0  0  0  0  0  0  0  0
   -4.1690   -1.1457    3.7110 H   0  0  0  0  0  0  0  0  0  0  0  0
   -3.8925    0.6144   -1.7009 H   0  0  0  0  0  0  0  0  0  0  0  0
   -3.0712    2.0149   -2.4446 H   0  0  0  0  0  0  0  0  0  0  0  0
   -2.3393   -0.9379   -2.8284 H   0  0  0  0  0  0  0  0  0  0  0  0
   -2.9838    0.1720   -4.0442 H   0  0  0  0  0  0  0  0  0  0  0  0
   -1.3548    0.4233   -3.4000 H   0  0  0  0  0  0  0  0  0  0  0  0
  1  2  1  0  0  0  0
  2  3  1  0  0  0  0
  3  4  2  0  0  0  0
  4  5  2  0  0  0  0
  4  6  2  0  0  0  0
  6  7  1  0  0  0  0
  7  8  1  0  0  0  0
  4  9  1  0  0  0  0
  9 10  1  0  0  0  0
 10 11  1  0  0  0  0
 11 12  1  0  0  0  0
 12 13  2  0  0  0  0
 12 14  2  0  0  0  0
 14 15  1  0  0  0  0
 15 16  1  0  0  0  0
 12 17  2  0  0  0  0
 17 18  1  0  0  0  0
 18 19  1  0  0  0  0
  1 20  1  0  0  0  0
  1 21  1  0  0  0  0
  1 22  1  0  0  0  0
  2 23  1  0  0  0  0
  2 24  1  0  0  0  0
  7 25  1  0  0  0  0
  7 26  1  0  0  0  0
  8 27  1  0  0  0  0
  8 28  1  0  0  0  0
  8 29  1  0  0  0  0
 10 30  1  0  0  0  0
 10 31  1  0  0  0  0
 15 32  1  0  0  0  0
 15 33  1  0  0  0  0
 16 34  1  0  0  0  0
 16 35  1  0  0  0  0
 16 36  1  0  0  0  0
 18 37  1  0  0  0  0
 18 38  1  0  0  0  0
 19 39  1  0  0  0  0
 19 40  1  0  0  0  0
 19 41  1  0  0  0  0
M  END
