 xtb: 6.7.1 (edcfbbe)
          04092505213D

 41 40  0     0  0            999 V2000
    5.4939   -1.1160   -1.4597 C   0  0  0  0  0  0  0  0  0  0  0  0
    4.0705   -1.3317   -1.9364 C   0  0  0  0  0  0  0  0  0  0  0  0
    3.1831   -1.5375   -0.8177 O   0  0  0  0  0  0  0  0  0  0  0  0
    2.3397   -0.3554   -0.1700 P   0  0  0  0  0  0  0  0  0  0  0  0
    3.3392    1.2561    0.3420 S   0  0  0  0  0  0  0  0  0  0  0  0
    1.6143   -1.1167    1.0089 O   0  0  0  0  0  0  0  0  0  0  0  0
    2.1436   -1.1394    2.3587 C   0  0  0  0  0  0  0  0  0  0  0  0
    1.0155   -0.9049    3.3422 C   0  0  0  0  0  0  0  0  0  0  0  0
    0.7817   -0.0631   -1.5650 S   0  0  0  0  0  0  0  0  0  0  0  0
    0.1867    1.5049   -0.8719 C   0  0  0  0  0  0  0  0  0  0  0  0
   -0.7467    1.2808    0.6536 S   0  0  0  0  0  0  0  0  0  0  0  0
   -2.4255    0.3266   -0.2682 P   0  0  0  0  0  0  0  0  0  0  0  0
   -2.9259    1.0152   -2.0287 S   0  0  0  0  0  0  0  0  0  0  0  0
   -3.5077    0.3284    0.8934 O   0  0  0  0  0  0  0  0  0  0  0  0
   -3.9026    1.4821    1.6610 C   0  0  0  0  0  0  0  0  0  0  0  0
   -4.3564    2.6368    0.7936 C   0  0  0  0  0  0  0  0  0  0  0  0
   -2.0750   -1.2047   -0.3868 O   0  0  0  0  0  0  0  0  0  0  0  0
   -1.7271   -2.0341    0.7474 C   0  0  0  0  0  0  0  0  0  0  0  0
   -2.8989   -2.9138    1.1310 C   0  0  0  0  0  0  0  0  0  0  0  0
    6.1493   -1.0282   -2.3201 H   0  0  0  0  0  0  0  0  0  0  0  0
    5.5596   -0.2045   -0.8695 H   0  0  0  0  0  0  0  0  0  0  0  0
    5.8129   -1.9546   -0.8473 H   0  0  0  0  0  0  0  0  0  0  0  0
    3.9824   -2.2434   -2.5302 H   0  0  0  0  0  0  0  0  0  0  0  0
    3.7191   -0.4796   -2.5253 H   0  0  0  0  0  0  0  0  0  0  0  0
    2.6044   -2.1187    2.5002 H   0  0  0  0  0  0  0  0  0  0  0  0
    2.9087   -0.3608    2.4477 H   0  0  0  0  0  0  0  0  0  0  0  0
    0.5394    0.0522    3.1419 H   0  0  0  0  0  0  0  0  0  0  0  0
    0.2767   -1.6971    3.2650 H   0  0  0  0  0  0  0  0  0  0  0  0
    1.4244   -0.8946    4.3474 H   0  0  0  0  0  0  0  0  0  0  0  0
   -0.4604    1.9531   -1.6267 H   0  0  0  0  0  0  0  0  0  0  0  0
    1.0384    2.1451   -0.6386 H   0  0  0  0  0  0  0  0  0  0  0  0
   -4.7165    1.1084    2.2847 H   0  0  0  0  0  0  0  0  0  0  0  0
   -3.0577    1.7791    2.2883 H   0  0  0  0  0  0  0  0  0  0  0  0
   -4.7237    3.4396    1.4248 H   0  0  0  0  0  0  0  0  0  0  0  0
   -3.5255    3.0076    0.1951 H   0  0  0  0  0  0  0  0  0  0  0  0
   -5.1472    2.3175    0.1189 H   0  0  0  0  0  0  0  0  0  0  0  0
   -0.8703   -2.6235    0.4129 H   0  0  0  0  0  0  0  0  0  0  0  0
   -1.4252   -1.3901    1.5777 H   0  0  0  0  0  0  0  0  0  0  0  0
   -3.2045   -3.5163    0.2801 H   0  0  0  0  0  0  0  0  0  0  0  0
   -2.6049   -3.5669    1.9467 H   0  0  0  0  0  0  0  0  0  0  0  0
   -3.7394   -2.2998    1.4442 H   0  0  0  0  0  0  0  0  0  0  0  0
  1  2  1  0  0  0  0
  2  3  1  0  0  0  0
  3  4  2  0  0  0  0
  4  5  2  0  0  0  0
  4  6  2  0  0  0  0
  6  7  1  0  0  0  0
  7  8  1  0  0  0  0
  4  9  1  0  0  0  0
  9 10  1  0  0  0  0
 10 11  1  0  0  0  0
 11 12  1  0  0  0  0
 12 13  2  0  0  0  0
 12 14  2  0  0  0  0
 14 15  1  0  0  0  0
 15 16  1  0  0  0  0
 12 17  2  0  0  0  0
 17 18  1  0  0  0  0
 18 19  1  0  0  0  0
  1 20  1  0  0  0  0
  1 21  1  0  0  0  0
  1 22  1  0  0  0  0
  2 23  1  0  0  0  0
  2 24  1  0  0  0  0
  7 25  1  0  0  0  0
  7 26  1  0  0  0  0
  8 27  1  0  0  0  0
  8 28  1  0  0  0  0
  8 29  1  0  0  0  0
 10 30  1  0  0  0  0
 10 31  1  0  0  0  0
 15 32  1  0  0  0  0
 15 33  1  0  0  0  0
 16 34  1  0  0  0  0
 16 35  1  0  0  0  0
 16 36  1  0  0  0  0
 18 37  1  0  0  0  0
 18 38  1  0  0  0  0
 19 39  1  0  0  0  0
 19 40  1  0  0  0  0
 19 41  1  0  0  0  0
M  END
