 xtb: 6.7.1 (edcfbbe)
          04092505213D

 41 40  0     0  0            999 V2000
    1.6078   -2.3212    2.7048 C   0  0  0  0  0  0  0  0  0  0  0  0
    0.8529   -1.7372    1.5270 C   0  0  0  0  0  0  0  0  0  0  0  0
    1.3283   -0.4058    1.2643 O   0  0  0  0  0  0  0  0  0  0  0  0
    2.1163    0.0400   -0.0449 P   0  0  0  0  0  0  0  0  0  0  0  0
    2.8352   -1.4479   -1.1052 S   0  0  0  0  0  0  0  0  0  0  0  0
    3.1012    1.1466    0.5151 O   0  0  0  0  0  0  0  0  0  0  0  0
    3.9772    0.9362    1.6439 C   0  0  0  0  0  0  0  0  0  0  0  0
    5.1585    0.0545    1.2911 C   0  0  0  0  0  0  0  0  0  0  0  0
    0.8947    1.4137   -1.0943 S   0  0  0  0  0  0  0  0  0  0  0  0
    0.1403    0.2161   -2.2269 C   0  0  0  0  0  0  0  0  0  0  0  0
   -0.8631   -1.0282   -1.3779 S   0  0  0  0  0  0  0  0  0  0  0  0
   -2.2540    0.3209   -0.5104 P   0  0  0  0  0  0  0  0  0  0  0  0
   -2.7689    1.8564   -1.6001 S   0  0  0  0  0  0  0  0  0  0  0  0
   -1.5248    0.6370    0.8797 O   0  0  0  0  0  0  0  0  0  0  0  0
   -1.5198    1.9470    1.4737 C   0  0  0  0  0  0  0  0  0  0  0  0
   -2.8384    2.2352    2.1619 C   0  0  0  0  0  0  0  0  0  0  0  0
   -3.5087   -0.5676   -0.1376 O   0  0  0  0  0  0  0  0  0  0  0  0
   -3.5132   -1.6269    0.8518 C   0  0  0  0  0  0  0  0  0  0  0  0
   -3.1768   -2.9677    0.2316 C   0  0  0  0  0  0  0  0  0  0  0  0
    1.5102   -1.6765    3.5738 H   0  0  0  0  0  0  0  0  0  0  0  0
    1.2001   -3.2998    2.9361 H   0  0  0  0  0  0  0  0  0  0  0  0
    2.6614   -2.4273    2.4561 H   0  0  0  0  0  0  0  0  0  0  0  0
   -0.2132   -1.6384    1.7399 H   0  0  0  0  0  0  0  0  0  0  0  0
    0.9910   -2.3516    0.6313 H   0  0  0  0  0  0  0  0  0  0  0  0
    4.2992    1.9447    1.9094 H   0  0  0  0  0  0  0  0  0  0  0  0
    3.3958    0.5059    2.4631 H   0  0  0  0  0  0  0  0  0  0  0  0
    5.7041    0.4759    0.4507 H   0  0  0  0  0  0  0  0  0  0  0  0
    5.8205   -0.0201    2.1481 H   0  0  0  0  0  0  0  0  0  0  0  0
    4.8198   -0.9422    1.0135 H   0  0  0  0  0  0  0  0  0  0  0  0
    0.9184   -0.3292   -2.7610 H   0  0  0  0  0  0  0  0  0  0  0  0
   -0.4882    0.7871   -2.9095 H   0  0  0  0  0  0  0  0  0  0  0  0
   -0.6851    1.9206    2.1763 H   0  0  0  0  0  0  0  0  0  0  0  0
   -1.3183    2.6873    0.6929 H   0  0  0  0  0  0  0  0  0  0  0  0
   -2.7981    3.2187    2.6191 H   0  0  0  0  0  0  0  0  0  0  0  0
   -3.6434    2.2193    1.4277 H   0  0  0  0  0  0  0  0  0  0  0  0
   -3.0413    1.4900    2.9265 H   0  0  0  0  0  0  0  0  0  0  0  0
   -2.8125   -1.3682    1.6489 H   0  0  0  0  0  0  0  0  0  0  0  0
   -4.5337   -1.6160    1.2384 H   0  0  0  0  0  0  0  0  0  0  0  0
   -3.8546   -3.1771   -0.5912 H   0  0  0  0  0  0  0  0  0  0  0  0
   -2.1575   -2.9726   -0.1499 H   0  0  0  0  0  0  0  0  0  0  0  0
   -3.2787   -3.7421    0.9854 H   0  0  0  0  0  0  0  0  0  0  0  0
  1  2  1  0  0  0  0
  2  3  1  0  0  0  0
  3  4  2  0  0  0  0
  4  5  2  0  0  0  0
  4  6  2  0  0  0  0
  6  7  1  0  0  0  0
  7  8  1  0  0  0  0
  4  9  1  0  0  0  0
  9 10  1  0  0  0  0
 10 11  1  0  0  0  0
 11 12  1  0  0  0  0
 12 13  2  0  0  0  0
 12 14  1  0  0  0  0
 14 15  1  0  0  0  0
 15 16  1  0  0  0  0
 12 17  2  0  0  0  0
 17 18  1  0  0  0  0
 18 19  1  0  0  0  0
  1 20  1  0  0  0  0
  1 21  1  0  0  0  0
  1 22  1  0  0  0  0
  2 23  1  0  0  0  0
  2 24  1  0  0  0  0
  7 25  1  0  0  0  0
  7 26  1  0  0  0  0
  8 27  1  0  0  0  0
  8 28  1  0  0  0  0
  8 29  1  0  0  0  0
 10 30  1  0  0  0  0
 10 31  1  0  0  0  0
 15 32  1  0  0  0  0
 15 33  1  0  0  0  0
 16 34  1  0  0  0  0
 16 35  1  0  0  0  0
 16 36  1  0  0  0  0
 18 37  1  0  0  0  0
 18 38  1  0  0  0  0
 19 39  1  0  0  0  0
 19 40  1  0  0  0  0
 19 41  1  0  0  0  0
M  END
