 xtb: 6.7.1 (edcfbbe)
          04092507313D

 38 37  0     0  0            999 V2000
    5.3162   -0.9174   -1.9105 C   0  0  0  0  0  0  0  0  0  0  0  0
    4.5329   -1.4856   -0.7433 C   0  0  0  0  0  0  0  0  0  0  0  0
    3.1294   -1.3785   -1.0485 O   0  0  0  0  0  0  0  0  0  0  0  0
    2.2817   -1.9995   -0.2474 C   0  0  0  0  0  0  0  0  0  0  0  0
    2.6141   -2.7075    0.6761 O   0  0  0  0  0  0  0  0  0  0  0  0
    0.8401   -1.7826   -0.6714 C   0  0  0  0  0  0  0  0  0  0  0  0
    0.5831   -0.3102   -0.9705 C   0  0  0  0  0  0  0  0  0  0  0  0
    1.2014    0.0034   -1.8190 H   0  0  0  0  0  0  0  0  0  0  0  0
    0.9758    0.5667    0.2050 C   0  0  0  0  0  0  0  0  0  0  0  0
    1.8981    0.2863    0.9369 O   0  0  0  0  0  0  0  0  0  0  0  0
    0.2615    1.6703    0.2673 O   0  0  0  0  0  0  0  0  0  0  0  0
    0.5616    2.6506    1.2825 C   0  0  0  0  0  0  0  0  0  0  0  0
    0.6217    4.0219    0.6362 C   0  0  0  0  0  0  0  0  0  0  0  0
   -1.1244   -0.0026   -1.5172 S   0  0  0  0  0  0  0  0  0  0  0  0
   -2.1353    0.1927    0.3425 P   0  0  0  0  0  0  0  0  0  0  0  0
   -1.3177   -0.6177    1.9336 S   0  0  0  0  0  0  0  0  0  0  0  0
   -2.5007    1.7120    0.5599 O   0  0  0  0  0  0  0  0  0  0  0  0
   -3.1594    2.4977   -0.4556 C   0  0  0  0  0  0  0  0  0  0  0  0
   -3.5788   -0.3947   -0.0242 O   0  0  0  0  0  0  0  0  0  0  0  0
   -3.7778   -1.7911   -0.2686 C   0  0  0  0  0  0  0  0  0  0  0  0
    6.3774   -0.9961   -1.6995 H   0  0  0  0  0  0  0  0  0  0  0  0
    5.0883   -1.4711   -2.8164 H   0  0  0  0  0  0  0  0  0  0  0  0
    5.0577    0.1264   -2.0599 H   0  0  0  0  0  0  0  0  0  0  0  0
    4.7155   -0.9309    0.1829 H   0  0  0  0  0  0  0  0  0  0  0  0
    4.7678   -2.5396   -0.5648 H   0  0  0  0  0  0  0  0  0  0  0  0
    0.2021   -2.1376    0.1404 H   0  0  0  0  0  0  0  0  0  0  0  0
    0.6496   -2.3743   -1.5680 H   0  0  0  0  0  0  0  0  0  0  0  0
   -0.2429    2.5882    2.0211 H   0  0  0  0  0  0  0  0  0  0  0  0
    1.5074    2.3726    1.7560 H   0  0  0  0  0  0  0  0  0  0  0  0
    1.4232    4.0600   -0.0964 H   0  0  0  0  0  0  0  0  0  0  0  0
   -0.3204    4.2417    0.1433 H   0  0  0  0  0  0  0  0  0  0  0  0
    0.8061    4.7653    1.4046 H   0  0  0  0  0  0  0  0  0  0  0  0
   -4.1377    2.0756   -0.6754 H   0  0  0  0  0  0  0  0  0  0  0  0
   -2.5494    2.5210   -1.3584 H   0  0  0  0  0  0  0  0  0  0  0  0
   -3.2564    3.4911   -0.0255 H   0  0  0  0  0  0  0  0  0  0  0  0
   -3.3206   -2.3814    0.5271 H   0  0  0  0  0  0  0  0  0  0  0  0
   -3.3468   -2.0635   -1.2318 H   0  0  0  0  0  0  0  0  0  0  0  0
   -4.8550   -1.9364   -0.2756 H   0  0  0  0  0  0  0  0  0  0  0  0
  1  2  1  0  0  0  0
  2  3  1  0  0  0  0
  3  4  1  0  0  0  0
  4  5  2  0  0  0  0
  4  6  1  0  0  0  0
  6  7  1  0  0  0  0
  7  8  1  0  0  0  0
  7  9  1  0  0  0  0
  9 10  2  0  0  0  0
  9 11  1  0  0  0  0
 11 12  1  0  0  0  0
 12 13  1  0  0  0  0
  7 14  1  0  0  0  0
 14 15  1  0  0  0  0
 15 16  2  0  0  0  0
 15 17  2  0  0  0  0
 17 18  1  0  0  0  0
 15 19  1  0  0  0  0
 19 20  1  0  0  0  0
  1 21  1  0  0  0  0
  1 22  1  0  0  0  0
  1 23  1  0  0  0  0
  2 24  1  0  0  0  0
  2 25  1  0  0  0  0
  6 26  1  0  0  0  0
  6 27  1  0  0  0  0
 12 28  1  0  0  0  0
 12 29  1  0  0  0  0
 13 30  1  0  0  0  0
 13 31  1  0  0  0  0
 13 32  1  0  0  0  0
 18 33  1  0  0  0  0
 18 34  1  0  0  0  0
 18 35  1  0  0  0  0
 20 36  1  0  0  0  0
 20 37  1  0  0  0  0
 20 38  1  0  0  0  0
M  END
