 xtb: 6.7.1 (edcfbbe)
          04092505203D

 41 40  0     0  0            999 V2000
    4.4822    0.6988   -2.1475 C   0  0  0  0  0  0  0  0  0  0  0  0
    3.1407   -0.0035   -2.1109 C   0  0  0  0  0  0  0  0  0  0  0  0
    2.2726    0.5903   -1.1151 O   0  0  0  0  0  0  0  0  0  0  0  0
    2.1320    0.0925    0.3719 P   0  0  0  0  0  0  0  0  0  0  0  0
    0.9232    1.2343    1.3987 S   0  0  0  0  0  0  0  0  0  0  0  0
    3.6297    0.0718    0.9034 O   0  0  0  0  0  0  0  0  0  0  0  0
    3.9509    0.0452    2.3062 C   0  0  0  0  0  0  0  0  0  0  0  0
    3.5005   -1.2377    2.9734 C   0  0  0  0  0  0  0  0  0  0  0  0
    1.6895   -1.9875    0.2090 S   0  0  0  0  0  0  0  0  0  0  0  0
    0.0749   -1.8923   -0.5984 C   0  0  0  0  0  0  0  0  0  0  0  0
   -1.2608   -1.3851    0.5347 S   0  0  0  0  0  0  0  0  0  0  0  0
   -2.1225    0.1350   -0.6868 P   0  0  0  0  0  0  0  0  0  0  0  0
   -0.9200    1.0700   -1.9131 S   0  0  0  0  0  0  0  0  0  0  0  0
   -2.9580    1.0167    0.3310 O   0  0  0  0  0  0  0  0  0  0  0  0
   -2.3907    2.0363    1.1743 C   0  0  0  0  0  0  0  0  0  0  0  0
   -3.5190    2.9430    1.6204 C   0  0  0  0  0  0  0  0  0  0  0  0
   -3.2470   -0.6044   -1.5069 O   0  0  0  0  0  0  0  0  0  0  0  0
   -4.3026   -1.3991   -0.9102 C   0  0  0  0  0  0  0  0  0  0  0  0
   -5.5484   -0.5679   -0.6832 C   0  0  0  0  0  0  0  0  0  0  0  0
    4.3391    1.7636   -2.3105 H   0  0  0  0  0  0  0  0  0  0  0  0
    5.0096    0.5541   -1.2086 H   0  0  0  0  0  0  0  0  0  0  0  0
    5.0735    0.2877   -2.9598 H   0  0  0  0  0  0  0  0  0  0  0  0
    3.2587   -1.0684   -1.8907 H   0  0  0  0  0  0  0  0  0  0  0  0
    2.5955    0.1268   -3.0483 H   0  0  0  0  0  0  0  0  0  0  0  0
    5.0364    0.1516    2.3258 H   0  0  0  0  0  0  0  0  0  0  0  0
    3.4822    0.9119    2.7823 H   0  0  0  0  0  0  0  0  0  0  0  0
    3.8737   -1.2619    3.9922 H   0  0  0  0  0  0  0  0  0  0  0  0
    2.4123   -1.2823    2.9964 H   0  0  0  0  0  0  0  0  0  0  0  0
    3.8755   -2.1008    2.4290 H   0  0  0  0  0  0  0  0  0  0  0  0
   -0.1370   -2.8964   -0.9558 H   0  0  0  0  0  0  0  0  0  0  0  0
    0.1132   -1.1710   -1.4196 H   0  0  0  0  0  0  0  0  0  0  0  0
   -1.9003    1.5531    2.0235 H   0  0  0  0  0  0  0  0  0  0  0  0
   -1.6315    2.5841    0.6070 H   0  0  0  0  0  0  0  0  0  0  0  0
   -3.9941    3.4003    0.7568 H   0  0  0  0  0  0  0  0  0  0  0  0
   -4.2587    2.3715    2.1733 H   0  0  0  0  0  0  0  0  0  0  0  0
   -3.1134    3.7196    2.2602 H   0  0  0  0  0  0  0  0  0  0  0  0
   -4.4816   -2.1928   -1.6375 H   0  0  0  0  0  0  0  0  0  0  0  0
   -3.9346   -1.8284    0.0262 H   0  0  0  0  0  0  0  0  0  0  0  0
   -5.8634   -0.1080   -1.6159 H   0  0  0  0  0  0  0  0  0  0  0  0
   -6.3408   -1.2119   -0.3147 H   0  0  0  0  0  0  0  0  0  0  0  0
   -5.3537    0.2146    0.0448 H   0  0  0  0  0  0  0  0  0  0  0  0
  1  2  1  0  0  0  0
  2  3  1  0  0  0  0
  3  4  2  0  0  0  0
  4  5  2  0  0  0  0
  4  6  2  0  0  0  0
  6  7  1  0  0  0  0
  7  8  1  0  0  0  0
  4  9  1  0  0  0  0
  9 10  1  0  0  0  0
 10 11  1  0  0  0  0
 11 12  1  0  0  0  0
 12 13  2  0  0  0  0
 12 14  2  0  0  0  0
 14 15  1  0  0  0  0
 15 16  1  0  0  0  0
 12 17  2  0  0  0  0
 17 18  1  0  0  0  0
 18 19  1  0  0  0  0
  1 20  1  0  0  0  0
  1 21  1  0  0  0  0
  1 22  1  0  0  0  0
  2 23  1  0  0  0  0
  2 24  1  0  0  0  0
  7 25  1  0  0  0  0
  7 26  1  0  0  0  0
  8 27  1  0  0  0  0
  8 28  1  0  0  0  0
  8 29  1  0  0  0  0
 10 30  1  0  0  0  0
 10 31  1  0  0  0  0
 15 32  1  0  0  0  0
 15 33  1  0  0  0  0
 16 34  1  0  0  0  0
 16 35  1  0  0  0  0
 16 36  1  0  0  0  0
 18 37  1  0  0  0  0
 18 38  1  0  0  0  0
 19 39  1  0  0  0  0
 19 40  1  0  0  0  0
 19 41  1  0  0  0  0
M  END
