 xtb: 6.7.1 (edcfbbe)
          04092505213D

 41 40  0     0  0            999 V2000
    4.4118   -1.4225   -2.2041 C   0  0  0  0  0  0  0  0  0  0  0  0
    4.2810   -1.2550   -0.7034 C   0  0  0  0  0  0  0  0  0  0  0  0
    3.6919    0.0348   -0.3984 O   0  0  0  0  0  0  0  0  0  0  0  0
    2.2362    0.2184    0.1751 P   0  0  0  0  0  0  0  0  0  0  0  0
    1.8410    2.1250    0.3440 S   0  0  0  0  0  0  0  0  0  0  0  0
    2.3339   -0.6646    1.4978 O   0  0  0  0  0  0  0  0  0  0  0  0
    1.2660   -0.8502    2.4421 C   0  0  0  0  0  0  0  0  0  0  0  0
    1.2609    0.2497    3.4856 C   0  0  0  0  0  0  0  0  0  0  0  0
    0.9565   -0.9292   -1.0893 S   0  0  0  0  0  0  0  0  0  0  0  0
    0.0708    0.4177   -1.9252 C   0  0  0  0  0  0  0  0  0  0  0  0
   -1.7288    0.1867   -2.0016 S   0  0  0  0  0  0  0  0  0  0  0  0
   -2.2351    0.0199    0.0576 P   0  0  0  0  0  0  0  0  0  0  0  0
   -4.1383    0.2257    0.4644 S   0  0  0  0  0  0  0  0  0  0  0  0
   -1.2304    0.9938    0.8145 O   0  0  0  0  0  0  0  0  0  0  0  0
   -1.6498    2.3155    1.2011 C   0  0  0  0  0  0  0  0  0  0  0  0
   -1.7786    3.2469    0.0130 C   0  0  0  0  0  0  0  0  0  0  0  0
   -1.5875   -1.3396    0.5738 O   0  0  0  0  0  0  0  0  0  0  0  0
   -2.2789   -2.5968    0.4664 C   0  0  0  0  0  0  0  0  0  0  0  0
   -2.3068   -3.1120   -0.9592 C   0  0  0  0  0  0  0  0  0  0  0  0
    3.4305   -1.4768   -2.6687 H   0  0  0  0  0  0  0  0  0  0  0  0
    4.9560   -0.5815   -2.6246 H   0  0  0  0  0  0  0  0  0  0  0  0
    4.9536   -2.3396   -2.4122 H   0  0  0  0  0  0  0  0  0  0  0  0
    5.2579   -1.2395   -0.2179 H   0  0  0  0  0  0  0  0  0  0  0  0
    3.6666   -2.0445   -0.2655 H   0  0  0  0  0  0  0  0  0  0  0  0
    0.3117   -0.8882    1.9112 H   0  0  0  0  0  0  0  0  0  0  0  0
    1.4722   -1.8227    2.8940 H   0  0  0  0  0  0  0  0  0  0  0  0
    2.2177    0.2845    3.9997 H   0  0  0  0  0  0  0  0  0  0  0  0
    1.0842    1.2137    3.0134 H   0  0  0  0  0  0  0  0  0  0  0  0
    0.4706    0.0585    4.2045 H   0  0  0  0  0  0  0  0  0  0  0  0
    0.3828    0.4545   -2.9661 H   0  0  0  0  0  0  0  0  0  0  0  0
    0.3090    1.3503   -1.4074 H   0  0  0  0  0  0  0  0  0  0  0  0
   -2.6035    2.2322    1.7311 H   0  0  0  0  0  0  0  0  0  0  0  0
   -0.8689    2.6541    1.8833 H   0  0  0  0  0  0  0  0  0  0  0  0
   -0.8210    3.3508   -0.4919 H   0  0  0  0  0  0  0  0  0  0  0  0
   -2.5199    2.8606   -0.6864 H   0  0  0  0  0  0  0  0  0  0  0  0
   -2.0989    4.2234    0.3614 H   0  0  0  0  0  0  0  0  0  0  0  0
   -1.7148   -3.2625    1.1212 H   0  0  0  0  0  0  0  0  0  0  0  0
   -3.2947   -2.4673    0.8542 H   0  0  0  0  0  0  0  0  0  0  0  0
   -1.3006   -3.1276   -1.3722 H   0  0  0  0  0  0  0  0  0  0  0  0
   -2.7154   -4.1173   -0.9669 H   0  0  0  0  0  0  0  0  0  0  0  0
   -2.9331   -2.4715   -1.5788 H   0  0  0  0  0  0  0  0  0  0  0  0
  1  2  1  0  0  0  0
  2  3  1  0  0  0  0
  3  4  2  0  0  0  0
  4  5  2  0  0  0  0
  4  6  2  0  0  0  0
  6  7  1  0  0  0  0
  7  8  1  0  0  0  0
  4  9  1  0  0  0  0
  9 10  1  0  0  0  0
 10 11  1  0  0  0  0
 11 12  1  0  0  0  0
 12 13  2  0  0  0  0
 12 14  2  0  0  0  0
 14 15  1  0  0  0  0
 15 16  1  0  0  0  0
 12 17  2  0  0  0  0
 17 18  1  0  0  0  0
 18 19  1  0  0  0  0
  1 20  1  0  0  0  0
  1 21  1  0  0  0  0
  1 22  1  0  0  0  0
  2 23  1  0  0  0  0
  2 24  1  0  0  0  0
  7 25  1  0  0  0  0
  7 26  1  0  0  0  0
  8 27  1  0  0  0  0
  8 28  1  0  0  0  0
  8 29  1  0  0  0  0
 10 30  1  0  0  0  0
 10 31  1  0  0  0  0
 15 32  1  0  0  0  0
 15 33  1  0  0  0  0
 16 34  1  0  0  0  0
 16 35  1  0  0  0  0
 16 36  1  0  0  0  0
 18 37  1  0  0  0  0
 18 38  1  0  0  0  0
 19 39  1  0  0  0  0
 19 40  1  0  0  0  0
 19 41  1  0  0  0  0
M  END
