 xtb: 6.7.1 (edcfbbe)
          04092505213D

 41 40  0     0  0            999 V2000
    1.4249    1.9420    2.5172 C   0  0  0  0  0  0  0  0  0  0  0  0
    2.8974    1.6184    2.3665 C   0  0  0  0  0  0  0  0  0  0  0  0
    3.2430    1.2826    1.0096 O   0  0  0  0  0  0  0  0  0  0  0  0
    2.8608   -0.1094    0.3603 P   0  0  0  0  0  0  0  0  0  0  0  0
    2.8966   -1.6588    1.5687 S   0  0  0  0  0  0  0  0  0  0  0  0
    3.9738   -0.0731   -0.7663 O   0  0  0  0  0  0  0  0  0  0  0  0
    4.4070   -1.2576   -1.4574 C   0  0  0  0  0  0  0  0  0  0  0  0
    3.3181   -1.8589   -2.3242 C   0  0  0  0  0  0  0  0  0  0  0  0
    1.0396    0.2199   -0.7068 S   0  0  0  0  0  0  0  0  0  0  0  0
   -0.0279   -1.0077    0.1070 C   0  0  0  0  0  0  0  0  0  0  0  0
   -1.3843   -0.2528    1.0185 S   0  0  0  0  0  0  0  0  0  0  0  0
   -2.6402    0.0862   -0.6762 P   0  0  0  0  0  0  0  0  0  0  0  0
   -2.5918   -1.3555   -2.0025 S   0  0  0  0  0  0  0  0  0  0  0  0
   -2.2281    1.4275   -1.3936 O   0  0  0  0  0  0  0  0  0  0  0  0
   -2.4166    2.7753   -0.8989 C   0  0  0  0  0  0  0  0  0  0  0  0
   -1.3529    3.1624    0.1083 C   0  0  0  0  0  0  0  0  0  0  0  0
   -4.0324    0.4838   -0.0242 O   0  0  0  0  0  0  0  0  0  0  0  0
   -4.6904   -0.2408    1.0325 C   0  0  0  0  0  0  0  0  0  0  0  0
   -4.9174   -1.6976    0.6884 C   0  0  0  0  0  0  0  0  0  0  0  0
    1.1375    2.7176    1.8126 H   0  0  0  0  0  0  0  0  0  0  0  0
    0.8205    1.0535    2.3350 H   0  0  0  0  0  0  0  0  0  0  0  0
    1.2366    2.2881    3.5283 H   0  0  0  0  0  0  0  0  0  0  0  0
    3.1796    0.7832    3.0160 H   0  0  0  0  0  0  0  0  0  0  0  0
    3.5226    2.4846    2.5876 H   0  0  0  0  0  0  0  0  0  0  0  0
    5.2511   -0.9139   -2.0570 H   0  0  0  0  0  0  0  0  0  0  0  0
    4.7516   -1.9856   -0.7159 H   0  0  0  0  0  0  0  0  0  0  0  0
    2.5212   -2.2640   -1.7010 H   0  0  0  0  0  0  0  0  0  0  0  0
    2.8983   -1.1046   -2.9855 H   0  0  0  0  0  0  0  0  0  0  0  0
    3.7376   -2.6640   -2.9192 H   0  0  0  0  0  0  0  0  0  0  0  0
    0.5706   -1.5840    0.8169 H   0  0  0  0  0  0  0  0  0  0  0  0
   -0.4545   -1.6496   -0.6664 H   0  0  0  0  0  0  0  0  0  0  0  0
   -2.3475    3.3834   -1.8024 H   0  0  0  0  0  0  0  0  0  0  0  0
   -3.4181    2.8555   -0.4731 H   0  0  0  0  0  0  0  0  0  0  0  0
   -1.4368    4.2239    0.3199 H   0  0  0  0  0  0  0  0  0  0  0  0
   -1.4774    2.6053    1.0339 H   0  0  0  0  0  0  0  0  0  0  0  0
   -0.3668    2.9553   -0.3020 H   0  0  0  0  0  0  0  0  0  0  0  0
   -4.0860   -0.1468    1.9387 H   0  0  0  0  0  0  0  0  0  0  0  0
   -5.6352    0.2913    1.1573 H   0  0  0  0  0  0  0  0  0  0  0  0
   -5.4574   -1.7864   -0.2514 H   0  0  0  0  0  0  0  0  0  0  0  0
   -3.9638   -2.2134    0.5852 H   0  0  0  0  0  0  0  0  0  0  0  0
   -5.4911   -2.1702    1.4791 H   0  0  0  0  0  0  0  0  0  0  0  0
  1  2  1  0  0  0  0
  2  3  1  0  0  0  0
  3  4  2  0  0  0  0
  4  5  2  0  0  0  0
  4  6  2  0  0  0  0
  6  7  1  0  0  0  0
  7  8  1  0  0  0  0
  4  9  1  0  0  0  0
  9 10  1  0  0  0  0
 10 11  1  0  0  0  0
 11 12  1  0  0  0  0
 12 13  2  0  0  0  0
 12 14  2  0  0  0  0
 14 15  1  0  0  0  0
 15 16  1  0  0  0  0
 12 17  2  0  0  0  0
 17 18  1  0  0  0  0
 18 19  1  0  0  0  0
  1 20  1  0  0  0  0
  1 21  1  0  0  0  0
  1 22  1  0  0  0  0
  2 23  1  0  0  0  0
  2 24  1  0  0  0  0
  7 25  1  0  0  0  0
  7 26  1  0  0  0  0
  8 27  1  0  0  0  0
  8 28  1  0  0  0  0
  8 29  1  0  0  0  0
 10 30  1  0  0  0  0
 10 31  1  0  0  0  0
 15 32  1  0  0  0  0
 15 33  1  0  0  0  0
 16 34  1  0  0  0  0
 16 35  1  0  0  0  0
 16 36  1  0  0  0  0
 18 37  1  0  0  0  0
 18 38  1  0  0  0  0
 19 39  1  0  0  0  0
 19 40  1  0  0  0  0
 19 41  1  0  0  0  0
M  END
