 xtb: 6.7.1 (edcfbbe)
          04092505203D

 41 40  0     0  0            999 V2000
    3.7166   -1.1607   -2.6856 C   0  0  0  0  0  0  0  0  0  0  0  0
    3.9735    0.1985   -2.0690 C   0  0  0  0  0  0  0  0  0  0  0  0
    3.5624    0.2592   -0.6907 O   0  0  0  0  0  0  0  0  0  0  0  0
    2.0421    0.1348   -0.2455 P   0  0  0  0  0  0  0  0  0  0  0  0
    0.7888    1.0887   -1.4061 S   0  0  0  0  0  0  0  0  0  0  0  0
    2.0381    0.7219    1.2151 O   0  0  0  0  0  0  0  0  0  0  0  0
    2.8810    0.2628    2.3004 C   0  0  0  0  0  0  0  0  0  0  0  0
    4.1505    1.0844    2.3842 C   0  0  0  0  0  0  0  0  0  0  0  0
    1.8306   -1.9714    0.0017 S   0  0  0  0  0  0  0  0  0  0  0  0
    0.1533   -2.0570    0.6776 C   0  0  0  0  0  0  0  0  0  0  0  0
   -1.1414   -1.6629   -0.5451 S   0  0  0  0  0  0  0  0  0  0  0  0
   -1.9934    0.0206    0.4009 P   0  0  0  0  0  0  0  0  0  0  0  0
   -1.0949    0.8125    1.9430 S   0  0  0  0  0  0  0  0  0  0  0  0
   -3.3926   -0.6765    0.7646 O   0  0  0  0  0  0  0  0  0  0  0  0
   -4.2731   -0.1472    1.7716 C   0  0  0  0  0  0  0  0  0  0  0  0
   -4.9644    1.1191    1.3074 C   0  0  0  0  0  0  0  0  0  0  0  0
   -2.3038    1.0846   -0.7281 O   0  0  0  0  0  0  0  0  0  0  0  0
   -2.8247    0.6997   -2.0238 C   0  0  0  0  0  0  0  0  0  0  0  0
   -3.6120    1.8689   -2.5767 C   0  0  0  0  0  0  0  0  0  0  0  0
    4.1497   -1.9449   -2.0697 H   0  0  0  0  0  0  0  0  0  0  0  0
    2.6445   -1.3330   -2.7717 H   0  0  0  0  0  0  0  0  0  0  0  0
    4.1575   -1.1934   -3.6767 H   0  0  0  0  0  0  0  0  0  0  0  0
    3.4400    0.9788   -2.6204 H   0  0  0  0  0  0  0  0  0  0  0  0
    5.0387    0.4310   -2.0320 H   0  0  0  0  0  0  0  0  0  0  0  0
    2.2595    0.3924    3.1893 H   0  0  0  0  0  0  0  0  0  0  0  0
    3.1062   -0.7970    2.1512 H   0  0  0  0  0  0  0  0  0  0  0  0
    3.9052    2.1390    2.4761 H   0  0  0  0  0  0  0  0  0  0  0  0
    4.7166    0.7705    3.2556 H   0  0  0  0  0  0  0  0  0  0  0  0
    4.7528    0.9395    1.4914 H   0  0  0  0  0  0  0  0  0  0  0  0
    0.0557   -1.3668    1.5202 H   0  0  0  0  0  0  0  0  0  0  0  0
    0.0160   -3.0890    0.9892 H   0  0  0  0  0  0  0  0  0  0  0  0
   -4.9835   -0.9552    1.9516 H   0  0  0  0  0  0  0  0  0  0  0  0
   -3.6877    0.0432    2.6770 H   0  0  0  0  0  0  0  0  0  0  0  0
   -5.6486    1.4593    2.0784 H   0  0  0  0  0  0  0  0  0  0  0  0
   -4.2235    1.8971    1.1228 H   0  0  0  0  0  0  0  0  0  0  0  0
   -5.5188    0.9325    0.3910 H   0  0  0  0  0  0  0  0  0  0  0  0
   -1.9655    0.4637   -2.6576 H   0  0  0  0  0  0  0  0  0  0  0  0
   -3.4478   -0.1918   -1.9049 H   0  0  0  0  0  0  0  0  0  0  0  0
   -4.4583    2.0959   -1.9342 H   0  0  0  0  0  0  0  0  0  0  0  0
   -2.9707    2.7439   -2.6355 H   0  0  0  0  0  0  0  0  0  0  0  0
   -3.9692    1.6167   -3.5698 H   0  0  0  0  0  0  0  0  0  0  0  0
  1  2  1  0  0  0  0
  2  3  1  0  0  0  0
  3  4  2  0  0  0  0
  4  5  2  0  0  0  0
  4  6  2  0  0  0  0
  6  7  1  0  0  0  0
  7  8  1  0  0  0  0
  4  9  1  0  0  0  0
  9 10  1  0  0  0  0
 10 11  1  0  0  0  0
 11 12  1  0  0  0  0
 12 13  2  0  0  0  0
 12 14  1  0  0  0  0
 14 15  1  0  0  0  0
 15 16  1  0  0  0  0
 12 17  2  0  0  0  0
 17 18  1  0  0  0  0
 18 19  1  0  0  0  0
  1 20  1  0  0  0  0
  1 21  1  0  0  0  0
  1 22  1  0  0  0  0
  2 23  1  0  0  0  0
  2 24  1  0  0  0  0
  7 25  1  0  0  0  0
  7 26  1  0  0  0  0
  8 27  1  0  0  0  0
  8 28  1  0  0  0  0
  8 29  1  0  0  0  0
 10 30  1  0  0  0  0
 10 31  1  0  0  0  0
 15 32  1  0  0  0  0
 15 33  1  0  0  0  0
 16 34  1  0  0  0  0
 16 35  1  0  0  0  0
 16 36  1  0  0  0  0
 18 37  1  0  0  0  0
 18 38  1  0  0  0  0
 19 39  1  0  0  0  0
 19 40  1  0  0  0  0
 19 41  1  0  0  0  0
M  END
