 xtb: 6.7.1 (edcfbbe)
          04092505203D

 41 40  0     0  0            999 V2000
    4.6332   -1.5703   -0.4953 C   0  0  0  0  0  0  0  0  0  0  0  0
    4.5928   -0.0743   -0.2604 C   0  0  0  0  0  0  0  0  0  0  0  0
    3.4171    0.3269    0.4634 O   0  0  0  0  0  0  0  0  0  0  0  0
    1.9656    0.3125   -0.1901 P   0  0  0  0  0  0  0  0  0  0  0  0
    1.9539    0.7941   -2.0972 S   0  0  0  0  0  0  0  0  0  0  0  0
    1.1620    1.1747    0.8685 O   0  0  0  0  0  0  0  0  0  0  0  0
    1.5504    2.4755    1.3547 C   0  0  0  0  0  0  0  0  0  0  0  0
    1.7307    3.4846    0.2403 C   0  0  0  0  0  0  0  0  0  0  0  0
    1.2016   -1.5956    0.2528 S   0  0  0  0  0  0  0  0  0  0  0  0
   -0.0320   -1.7840   -1.0769 C   0  0  0  0  0  0  0  0  0  0  0  0
   -1.7242   -1.9335   -0.4625 S   0  0  0  0  0  0  0  0  0  0  0  0
   -2.0273    0.0671    0.1919 P   0  0  0  0  0  0  0  0  0  0  0  0
   -1.3994    1.4794   -1.0064 S   0  0  0  0  0  0  0  0  0  0  0  0
   -1.4147    0.1740    1.6420 O   0  0  0  0  0  0  0  0  0  0  0  0
   -1.8774   -0.6161    2.7724 C   0  0  0  0  0  0  0  0  0  0  0  0
   -0.8787   -1.7025    3.1168 C   0  0  0  0  0  0  0  0  0  0  0  0
   -3.5882    0.0985    0.5047 O   0  0  0  0  0  0  0  0  0  0  0  0
   -4.5780    0.4226   -0.4876 C   0  0  0  0  0  0  0  0  0  0  0  0
   -4.6739   -0.6271   -1.5756 C   0  0  0  0  0  0  0  0  0  0  0  0
    4.4887   -2.1040    0.4404 H   0  0  0  0  0  0  0  0  0  0  0  0
    3.8458   -1.8582   -1.1900 H   0  0  0  0  0  0  0  0  0  0  0  0
    5.5942   -1.8394   -0.9216 H   0  0  0  0  0  0  0  0  0  0  0  0
    4.6123    0.4645   -1.2133 H   0  0  0  0  0  0  0  0  0  0  0  0
    5.4162    0.2580    0.3734 H   0  0  0  0  0  0  0  0  0  0  0  0
    0.7239    2.7536    2.0117 H   0  0  0  0  0  0  0  0  0  0  0  0
    2.4696    2.3596    1.9342 H   0  0  0  0  0  0  0  0  0  0  0  0
    1.9202    4.4652    0.6652 H   0  0  0  0  0  0  0  0  0  0  0  0
    2.5700    3.2011   -0.3940 H   0  0  0  0  0  0  0  0  0  0  0  0
    0.8339    3.5257   -0.3761 H   0  0  0  0  0  0  0  0  0  0  0  0
    0.1770   -2.7138   -1.5993 H   0  0  0  0  0  0  0  0  0  0  0  0
    0.0498   -0.9265   -1.7510 H   0  0  0  0  0  0  0  0  0  0  0  0
   -1.9713    0.1067    3.5846 H   0  0  0  0  0  0  0  0  0  0  0  0
   -2.8579   -1.0331    2.5372 H   0  0  0  0  0  0  0  0  0  0  0  0
    0.1103   -1.2726    3.2524 H   0  0  0  0  0  0  0  0  0  0  0  0
   -1.1896   -2.1840    4.0385 H   0  0  0  0  0  0  0  0  0  0  0  0
   -0.8255   -2.4479    2.3271 H   0  0  0  0  0  0  0  0  0  0  0  0
   -5.5028    0.4936    0.0868 H   0  0  0  0  0  0  0  0  0  0  0  0
   -4.3291    1.3987   -0.9155 H   0  0  0  0  0  0  0  0  0  0  0  0
   -4.7922   -1.6160   -1.1400 H   0  0  0  0  0  0  0  0  0  0  0  0
   -5.5271   -0.4061   -2.2089 H   0  0  0  0  0  0  0  0  0  0  0  0
   -3.7721   -0.6166   -2.1856 H   0  0  0  0  0  0  0  0  0  0  0  0
  1  2  1  0  0  0  0
  2  3  1  0  0  0  0
  3  4  2  0  0  0  0
  4  5  2  0  0  0  0
  4  6  2  0  0  0  0
  6  7  1  0  0  0  0
  7  8  1  0  0  0  0
  4  9  1  0  0  0  0
  9 10  1  0  0  0  0
 10 11  1  0  0  0  0
 11 12  1  0  0  0  0
 12 13  2  0  0  0  0
 12 14  2  0  0  0  0
 14 15  1  0  0  0  0
 15 16  1  0  0  0  0
 12 17  2  0  0  0  0
 17 18  1  0  0  0  0
 18 19  1  0  0  0  0
  1 20  1  0  0  0  0
  1 21  1  0  0  0  0
  1 22  1  0  0  0  0
  2 23  1  0  0  0  0
  2 24  1  0  0  0  0
  7 25  1  0  0  0  0
  7 26  1  0  0  0  0
  8 27  1  0  0  0  0
  8 28  1  0  0  0  0
  8 29  1  0  0  0  0
 10 30  1  0  0  0  0
 10 31  1  0  0  0  0
 15 32  1  0  0  0  0
 15 33  1  0  0  0  0
 16 34  1  0  0  0  0
 16 35  1  0  0  0  0
 16 36  1  0  0  0  0
 18 37  1  0  0  0  0
 18 38  1  0  0  0  0
 19 39  1  0  0  0  0
 19 40  1  0  0  0  0
 19 41  1  0  0  0  0
M  END
