 xtb: 6.7.1 (edcfbbe)
          04092505213D

 41 40  0     0  0            999 V2000
    2.9650    2.1362   -1.5409 C   0  0  0  0  0  0  0  0  0  0  0  0
    3.6890    1.9171   -0.2284 C   0  0  0  0  0  0  0  0  0  0  0  0
    3.5119    0.5778    0.2617 O   0  0  0  0  0  0  0  0  0  0  0  0
    2.1082    0.0557    0.8008 P   0  0  0  0  0  0  0  0  0  0  0  0
    1.1444    1.3572    1.8948 S   0  0  0  0  0  0  0  0  0  0  0  0
    2.4852   -1.2447    1.6076 O   0  0  0  0  0  0  0  0  0  0  0  0
    3.4203   -2.2485    1.1304 C   0  0  0  0  0  0  0  0  0  0  0  0
    4.8057   -1.9960    1.6885 C   0  0  0  0  0  0  0  0  0  0  0  0
    1.2073   -0.7024   -0.9965 S   0  0  0  0  0  0  0  0  0  0  0  0
    0.1112   -1.9612   -0.2884 C   0  0  0  0  0  0  0  0  0  0  0  0
   -1.0744   -1.3066    0.9212 S   0  0  0  0  0  0  0  0  0  0  0  0
   -2.1097   -0.0409   -0.4162 P   0  0  0  0  0  0  0  0  0  0  0  0
   -2.3278   -0.7333   -2.2401 S   0  0  0  0  0  0  0  0  0  0  0  0
   -1.3010    1.3076   -0.2800 O   0  0  0  0  0  0  0  0  0  0  0  0
   -1.3017    2.3193   -1.3075 C   0  0  0  0  0  0  0  0  0  0  0  0
   -2.6656    2.9574   -1.4580 C   0  0  0  0  0  0  0  0  0  0  0  0
   -3.4330    0.3047    0.3908 O   0  0  0  0  0  0  0  0  0  0  0  0
   -4.4931   -0.6530    0.5886 C   0  0  0  0  0  0  0  0  0  0  0  0
   -5.5454   -0.5322   -0.4968 C   0  0  0  0  0  0  0  0  0  0  0  0
    3.2698    1.3922   -2.2725 H   0  0  0  0  0  0  0  0  0  0  0  0
    1.8896    2.0512   -1.3862 H   0  0  0  0  0  0  0  0  0  0  0  0
    3.1895    3.1287   -1.9178 H   0  0  0  0  0  0  0  0  0  0  0  0
    3.3271    2.6142    0.5343 H   0  0  0  0  0  0  0  0  0  0  0  0
    4.7692    2.0166   -0.3420 H   0  0  0  0  0  0  0  0  0  0  0  0
    3.0156   -3.1939    1.4977 H   0  0  0  0  0  0  0  0  0  0  0  0
    3.4289   -2.2400    0.0374 H   0  0  0  0  0  0  0  0  0  0  0  0
    5.1998   -1.0568    1.3104 H   0  0  0  0  0  0  0  0  0  0  0  0
    4.7661   -1.9484    2.7733 H   0  0  0  0  0  0  0  0  0  0  0  0
    5.4614   -2.8074    1.3883 H   0  0  0  0  0  0  0  0  0  0  0  0
    0.6879   -2.7234    0.2289 H   0  0  0  0  0  0  0  0  0  0  0  0
   -0.4316   -2.3827   -1.1356 H   0  0  0  0  0  0  0  0  0  0  0  0
   -0.5534    3.0356   -0.9638 H   0  0  0  0  0  0  0  0  0  0  0  0
   -0.9798    1.8583   -2.2476 H   0  0  0  0  0  0  0  0  0  0  0  0
   -3.0032    3.3466   -0.5009 H   0  0  0  0  0  0  0  0  0  0  0  0
   -2.6090    3.7648   -2.1812 H   0  0  0  0  0  0  0  0  0  0  0  0
   -3.3808    2.2138   -1.8086 H   0  0  0  0  0  0  0  0  0  0  0  0
   -4.0687   -1.6611    0.6151 H   0  0  0  0  0  0  0  0  0  0  0  0
   -4.9029   -0.4066    1.5701 H   0  0  0  0  0  0  0  0  0  0  0  0
   -5.1166   -0.7729   -1.4671 H   0  0  0  0  0  0  0  0  0  0  0  0
   -6.3549   -1.2236   -0.2866 H   0  0  0  0  0  0  0  0  0  0  0  0
   -5.9365    0.4810   -0.5263 H   0  0  0  0  0  0  0  0  0  0  0  0
  1  2  1  0  0  0  0
  2  3  1  0  0  0  0
  3  4  2  0  0  0  0
  4  5  2  0  0  0  0
  4  6  2  0  0  0  0
  6  7  1  0  0  0  0
  7  8  1  0  0  0  0
  4  9  1  0  0  0  0
  9 10  1  0  0  0  0
 10 11  1  0  0  0  0
 11 12  1  0  0  0  0
 12 13  2  0  0  0  0
 12 14  2  0  0  0  0
 14 15  1  0  0  0  0
 15 16  1  0  0  0  0
 12 17  2  0  0  0  0
 17 18  1  0  0  0  0
 18 19  1  0  0  0  0
  1 20  1  0  0  0  0
  1 21  1  0  0  0  0
  1 22  1  0  0  0  0
  2 23  1  0  0  0  0
  2 24  1  0  0  0  0
  7 25  1  0  0  0  0
  7 26  1  0  0  0  0
  8 27  1  0  0  0  0
  8 28  1  0  0  0  0
  8 29  1  0  0  0  0
 10 30  1  0  0  0  0
 10 31  1  0  0  0  0
 15 32  1  0  0  0  0
 15 33  1  0  0  0  0
 16 34  1  0  0  0  0
 16 35  1  0  0  0  0
 16 36  1  0  0  0  0
 18 37  1  0  0  0  0
 18 38  1  0  0  0  0
 19 39  1  0  0  0  0
 19 40  1  0  0  0  0
 19 41  1  0  0  0  0
M  END
