 xtb: 6.7.1 (edcfbbe)
          04092505213D

 41 40  0     0  0            999 V2000
    2.5108   -0.4721   -3.1667 C   0  0  0  0  0  0  0  0  0  0  0  0
    2.9040    0.5845   -2.1545 C   0  0  0  0  0  0  0  0  0  0  0  0
    3.2284   -0.0222   -0.8911 O   0  0  0  0  0  0  0  0  0  0  0  0
    2.2564   -0.1201    0.3603 P   0  0  0  0  0  0  0  0  0  0  0  0
    1.4211    1.5793    0.8984 S   0  0  0  0  0  0  0  0  0  0  0  0
    3.2348   -0.7490    1.4361 O   0  0  0  0  0  0  0  0  0  0  0  0
    4.2499    0.0362    2.1039 C   0  0  0  0  0  0  0  0  0  0  0  0
    3.7938    0.4051    3.5016 C   0  0  0  0  0  0  0  0  0  0  0  0
    1.0261   -1.7913    0.0584 S   0  0  0  0  0  0  0  0  0  0  0  0
   -0.2961   -1.3622    1.2521 C   0  0  0  0  0  0  0  0  0  0  0  0
   -1.9510   -1.4962    0.5474 S   0  0  0  0  0  0  0  0  0  0  0  0
   -2.0061    0.3679   -0.4929 P   0  0  0  0  0  0  0  0  0  0  0  0
   -0.7000    0.5988   -1.9335 S   0  0  0  0  0  0  0  0  0  0  0  0
   -1.8648    1.4833    0.6127 O   0  0  0  0  0  0  0  0  0  0  0  0
   -2.9286    1.9977    1.4511 C   0  0  0  0  0  0  0  0  0  0  0  0
   -3.5061    0.9514    2.3808 C   0  0  0  0  0  0  0  0  0  0  0  0
   -3.5216    0.5025   -0.9450 O   0  0  0  0  0  0  0  0  0  0  0  0
   -4.0050   -0.0412   -2.1867 C   0  0  0  0  0  0  0  0  0  0  0  0
   -3.9344   -1.5538   -2.2143 C   0  0  0  0  0  0  0  0  0  0  0  0
    3.2842   -1.2323   -3.2300 H   0  0  0  0  0  0  0  0  0  0  0  0
    1.5722   -0.9399   -2.8775 H   0  0  0  0  0  0  0  0  0  0  0  0
    2.3788   -0.0022   -4.1356 H   0  0  0  0  0  0  0  0  0  0  0  0
    2.0993    1.3130   -2.0133 H   0  0  0  0  0  0  0  0  0  0  0  0
    3.8167    1.1028   -2.4549 H   0  0  0  0  0  0  0  0  0  0  0  0
    5.1300   -0.6085    2.1258 H   0  0  0  0  0  0  0  0  0  0  0  0
    4.4644    0.9290    1.5106 H   0  0  0  0  0  0  0  0  0  0  0  0
    4.5948    0.9289    4.0131 H   0  0  0  0  0  0  0  0  0  0  0  0
    2.9214    1.0533    3.4500 H   0  0  0  0  0  0  0  0  0  0  0  0
    3.5356   -0.4919    4.0569 H   0  0  0  0  0  0  0  0  0  0  0  0
   -0.1255   -0.3375    1.5933 H   0  0  0  0  0  0  0  0  0  0  0  0
   -0.2565   -2.0719    2.0735 H   0  0  0  0  0  0  0  0  0  0  0  0
   -2.4354    2.8003    2.0026 H   0  0  0  0  0  0  0  0  0  0  0  0
   -3.7014    2.4122    0.8012 H   0  0  0  0  0  0  0  0  0  0  0  0
   -2.7214    0.5021    2.9844 H   0  0  0  0  0  0  0  0  0  0  0  0
   -4.2275    1.4290    3.0366 H   0  0  0  0  0  0  0  0  0  0  0  0
   -4.0057    0.1711    1.8112 H   0  0  0  0  0  0  0  0  0  0  0  0
   -5.0336    0.3177   -2.2423 H   0  0  0  0  0  0  0  0  0  0  0  0
   -3.4150    0.3862   -3.0035 H   0  0  0  0  0  0  0  0  0  0  0  0
   -2.8942   -1.8768   -2.2181 H   0  0  0  0  0  0  0  0  0  0  0  0
   -4.4277   -1.9740   -1.3416 H   0  0  0  0  0  0  0  0  0  0  0  0
   -4.4181   -1.9187   -3.1146 H   0  0  0  0  0  0  0  0  0  0  0  0
  1  2  1  0  0  0  0
  2  3  1  0  0  0  0
  3  4  2  0  0  0  0
  4  5  2  0  0  0  0
  4  6  2  0  0  0  0
  6  7  1  0  0  0  0
  7  8  1  0  0  0  0
  4  9  1  0  0  0  0
  9 10  1  0  0  0  0
 10 11  1  0  0  0  0
 11 12  1  0  0  0  0
 12 13  2  0  0  0  0
 12 14  2  0  0  0  0
 14 15  1  0  0  0  0
 15 16  1  0  0  0  0
 12 17  2  0  0  0  0
 17 18  1  0  0  0  0
 18 19  1  0  0  0  0
  1 20  1  0  0  0  0
  1 21  1  0  0  0  0
  1 22  1  0  0  0  0
  2 23  1  0  0  0  0
  2 24  1  0  0  0  0
  7 25  1  0  0  0  0
  7 26  1  0  0  0  0
  8 27  1  0  0  0  0
  8 28  1  0  0  0  0
  8 29  1  0  0  0  0
 10 30  1  0  0  0  0
 10 31  1  0  0  0  0
 15 32  1  0  0  0  0
 15 33  1  0  0  0  0
 16 34  1  0  0  0  0
 16 35  1  0  0  0  0
 16 36  1  0  0  0  0
 18 37  1  0  0  0  0
 18 38  1  0  0  0  0
 19 39  1  0  0  0  0
 19 40  1  0  0  0  0
 19 41  1  0  0  0  0
M  END
