 xtb: 6.7.1 (edcfbbe)
          04092505213D

 41 40  0     0  0            999 V2000
    3.6904   -1.7021   -2.2994 C   0  0  0  0  0  0  0  0  0  0  0  0
    4.0999   -0.3416   -1.7714 C   0  0  0  0  0  0  0  0  0  0  0  0
    3.6240   -0.1084   -0.4374 O   0  0  0  0  0  0  0  0  0  0  0  0
    2.0807    0.0760   -0.0786 P   0  0  0  0  0  0  0  0  0  0  0  0
    1.0987    1.1021   -1.4332 S   0  0  0  0  0  0  0  0  0  0  0  0
    2.2028    0.6417    1.3894 O   0  0  0  0  0  0  0  0  0  0  0  0
    2.2694    2.0480    1.6955 C   0  0  0  0  0  0  0  0  0  0  0  0
    3.4910    2.7115    1.0958 C   0  0  0  0  0  0  0  0  0  0  0  0
    1.3931   -1.8726    0.3711 S   0  0  0  0  0  0  0  0  0  0  0  0
    0.0510   -2.0414   -0.8557 C   0  0  0  0  0  0  0  0  0  0  0  0
   -1.6008   -2.2455   -0.1279 S   0  0  0  0  0  0  0  0  0  0  0  0
   -2.1044   -0.2492    0.2889 P   0  0  0  0  0  0  0  0  0  0  0  0
   -0.9915    0.7982    1.5288 S   0  0  0  0  0  0  0  0  0  0  0  0
   -3.6178   -0.3736    0.7594 O   0  0  0  0  0  0  0  0  0  0  0  0
   -4.0003   -0.5518    2.1385 C   0  0  0  0  0  0  0  0  0  0  0  0
   -4.6118    0.7286    2.6733 C   0  0  0  0  0  0  0  0  0  0  0  0
   -2.2531    0.3095   -1.1795 O   0  0  0  0  0  0  0  0  0  0  0  0
   -2.4941    1.7114   -1.4408 C   0  0  0  0  0  0  0  0  0  0  0  0
   -2.1969    1.9678   -2.9025 C   0  0  0  0  0  0  0  0  0  0  0  0
    3.9618   -2.4793   -1.5893 H   0  0  0  0  0  0  0  0  0  0  0  0
    2.6134   -1.7305   -2.4592 H   0  0  0  0  0  0  0  0  0  0  0  0
    4.1911   -1.8852   -3.2447 H   0  0  0  0  0  0  0  0  0  0  0  0
    3.7163    0.4532   -2.4197 H   0  0  0  0  0  0  0  0  0  0  0  0
    5.1836   -0.2554   -1.6807 H   0  0  0  0  0  0  0  0  0  0  0  0
    1.3471    2.5197    1.3407 H   0  0  0  0  0  0  0  0  0  0  0  0
    2.2853    2.0704    2.7861 H   0  0  0  0  0  0  0  0  0  0  0  0
    4.3904    2.1799    1.3961 H   0  0  0  0  0  0  0  0  0  0  0  0
    3.4229    2.7048    0.0083 H   0  0  0  0  0  0  0  0  0  0  0  0
    3.5440    3.7398    1.4394 H   0  0  0  0  0  0  0  0  0  0  0  0
    0.2296   -2.9564   -1.4138 H   0  0  0  0  0  0  0  0  0  0  0  0
    0.0483   -1.1639   -1.5078 H   0  0  0  0  0  0  0  0  0  0  0  0
   -4.7195   -1.3723    2.1356 H   0  0  0  0  0  0  0  0  0  0  0  0
   -3.1220   -0.8348    2.7253 H   0  0  0  0  0  0  0  0  0  0  0  0
   -4.9546    0.5642    3.6896 H   0  0  0  0  0  0  0  0  0  0  0  0
   -3.8677    1.5226    2.6729 H   0  0  0  0  0  0  0  0  0  0  0  0
   -5.4512    1.0296    2.0530 H   0  0  0  0  0  0  0  0  0  0  0  0
   -3.5373    1.9231   -1.1956 H   0  0  0  0  0  0  0  0  0  0  0  0
   -1.8418    2.3035   -0.7900 H   0  0  0  0  0  0  0  0  0  0  0  0
   -1.1438    1.7847   -3.1026 H   0  0  0  0  0  0  0  0  0  0  0  0
   -2.7973    1.3094   -3.5230 H   0  0  0  0  0  0  0  0  0  0  0  0
   -2.4296    3.0014   -3.1363 H   0  0  0  0  0  0  0  0  0  0  0  0
  1  2  1  0  0  0  0
  2  3  1  0  0  0  0
  3  4  2  0  0  0  0
  4  5  2  0  0  0  0
  4  6  2  0  0  0  0
  6  7  1  0  0  0  0
  7  8  1  0  0  0  0
  4  9  1  0  0  0  0
  9 10  1  0  0  0  0
 10 11  1  0  0  0  0
 11 12  1  0  0  0  0
 12 13  2  0  0  0  0
 12 14  2  0  0  0  0
 14 15  1  0  0  0  0
 15 16  1  0  0  0  0
 12 17  2  0  0  0  0
 17 18  1  0  0  0  0
 18 19  1  0  0  0  0
  1 20  1  0  0  0  0
  1 21  1  0  0  0  0
  1 22  1  0  0  0  0
  2 23  1  0  0  0  0
  2 24  1  0  0  0  0
  7 25  1  0  0  0  0
  7 26  1  0  0  0  0
  8 27  1  0  0  0  0
  8 28  1  0  0  0  0
  8 29  1  0  0  0  0
 10 30  1  0  0  0  0
 10 31  1  0  0  0  0
 15 32  1  0  0  0  0
 15 33  1  0  0  0  0
 16 34  1  0  0  0  0
 16 35  1  0  0  0  0
 16 36  1  0  0  0  0
 18 37  1  0  0  0  0
 18 38  1  0  0  0  0
 19 39  1  0  0  0  0
 19 40  1  0  0  0  0
 19 41  1  0  0  0  0
M  END
