 xtb: 6.7.1 (edcfbbe)
          04092505213D

 41 40  0     0  0            999 V2000
    5.0635    1.1330   -0.0589 C   0  0  0  0  0  0  0  0  0  0  0  0
    3.7619    1.3728   -0.7938 C   0  0  0  0  0  0  0  0  0  0  0  0
    2.9933    0.1578   -0.8945 O   0  0  0  0  0  0  0  0  0  0  0  0
    2.2540   -0.4690    0.3598 P   0  0  0  0  0  0  0  0  0  0  0  0
    1.7248    0.8477    1.7205 S   0  0  0  0  0  0  0  0  0  0  0  0
    3.3000   -1.5608    0.8469 O   0  0  0  0  0  0  0  0  0  0  0  0
    2.9780   -2.7640    1.5677 C   0  0  0  0  0  0  0  0  0  0  0  0
    2.0346   -2.5222    2.7276 C   0  0  0  0  0  0  0  0  0  0  0  0
    0.7642   -1.6321   -0.6150 S   0  0  0  0  0  0  0  0  0  0  0  0
    0.1888   -0.4082   -1.8243 C   0  0  0  0  0  0  0  0  0  0  0  0
   -0.4776    1.0997   -1.0855 S   0  0  0  0  0  0  0  0  0  0  0  0
   -2.4922    0.4386   -0.7476 P   0  0  0  0  0  0  0  0  0  0  0  0
   -3.0183   -1.1946   -1.6816 S   0  0  0  0  0  0  0  0  0  0  0  0
   -3.3797    1.6454   -1.2255 O   0  0  0  0  0  0  0  0  0  0  0  0
   -3.2314    3.0003   -0.7308 C   0  0  0  0  0  0  0  0  0  0  0  0
   -4.2649    3.2943    0.3370 C   0  0  0  0  0  0  0  0  0  0  0  0
   -2.6858    0.5076    0.8310 O   0  0  0  0  0  0  0  0  0  0  0  0
   -1.9277   -0.2125    1.8156 C   0  0  0  0  0  0  0  0  0  0  0  0
   -2.1577   -1.7087    1.7504 C   0  0  0  0  0  0  0  0  0  0  0  0
    5.6471    2.0480   -0.0458 H   0  0  0  0  0  0  0  0  0  0  0  0
    4.8519    0.8293    0.9659 H   0  0  0  0  0  0  0  0  0  0  0  0
    5.6310    0.3449   -0.5465 H   0  0  0  0  0  0  0  0  0  0  0  0
    3.9265    1.6720   -1.8297 H   0  0  0  0  0  0  0  0  0  0  0  0
    3.1578    2.1278   -0.2798 H   0  0  0  0  0  0  0  0  0  0  0  0
    2.5425   -3.4744    0.8592 H   0  0  0  0  0  0  0  0  0  0  0  0
    3.9486   -3.1283    1.9092 H   0  0  0  0  0  0  0  0  0  0  0  0
    2.4422   -1.7713    3.4006 H   0  0  0  0  0  0  0  0  0  0  0  0
    1.0731   -2.1694    2.3547 H   0  0  0  0  0  0  0  0  0  0  0  0
    1.8848   -3.4499    3.2704 H   0  0  0  0  0  0  0  0  0  0  0  0
   -0.5985   -0.9075   -2.3933 H   0  0  0  0  0  0  0  0  0  0  0  0
    1.0190   -0.1138   -2.4602 H   0  0  0  0  0  0  0  0  0  0  0  0
   -2.2150    3.1328   -0.3496 H   0  0  0  0  0  0  0  0  0  0  0  0
   -3.3778    3.6296   -1.6104 H   0  0  0  0  0  0  0  0  0  0  0  0
   -4.1097    2.6522    1.1998 H   0  0  0  0  0  0  0  0  0  0  0  0
   -4.1760    4.3324    0.6415 H   0  0  0  0  0  0  0  0  0  0  0  0
   -5.2626    3.1180   -0.0552 H   0  0  0  0  0  0  0  0  0  0  0  0
   -0.8675    0.0343    1.6963 H   0  0  0  0  0  0  0  0  0  0  0  0
   -2.2801    0.1997    2.7630 H   0  0  0  0  0  0  0  0  0  0  0  0
   -1.6739   -2.1804    2.6001 H   0  0  0  0  0  0  0  0  0  0  0  0
   -3.2229   -1.9238    1.7793 H   0  0  0  0  0  0  0  0  0  0  0  0
   -1.7461   -2.1242    0.8321 H   0  0  0  0  0  0  0  0  0  0  0  0
  1  2  1  0  0  0  0
  2  3  1  0  0  0  0
  3  4  2  0  0  0  0
  4  5  2  0  0  0  0
  4  6  2  0  0  0  0
  6  7  1  0  0  0  0
  7  8  1  0  0  0  0
  4  9  1  0  0  0  0
  9 10  1  0  0  0  0
 10 11  1  0  0  0  0
 11 12  1  0  0  0  0
 12 13  2  0  0  0  0
 12 14  2  0  0  0  0
 14 15  1  0  0  0  0
 15 16  1  0  0  0  0
 12 17  2  0  0  0  0
 17 18  1  0  0  0  0
 18 19  1  0  0  0  0
  1 20  1  0  0  0  0
  1 21  1  0  0  0  0
  1 22  1  0  0  0  0
  2 23  1  0  0  0  0
  2 24  1  0  0  0  0
  7 25  1  0  0  0  0
  7 26  1  0  0  0  0
  8 27  1  0  0  0  0
  8 28  1  0  0  0  0
  8 29  1  0  0  0  0
 10 30  1  0  0  0  0
 10 31  1  0  0  0  0
 15 32  1  0  0  0  0
 15 33  1  0  0  0  0
 16 34  1  0  0  0  0
 16 35  1  0  0  0  0
 16 36  1  0  0  0  0
 18 37  1  0  0  0  0
 18 38  1  0  0  0  0
 19 39  1  0  0  0  0
 19 40  1  0  0  0  0
 19 41  1  0  0  0  0
M  END
