 xtb: 6.7.1 (edcfbbe)
          04092505213D

 41 40  0     0  0            999 V2000
    3.9554    0.6341   -2.4572 C   0  0  0  0  0  0  0  0  0  0  0  0
    2.6902   -0.1922   -2.3512 C   0  0  0  0  0  0  0  0  0  0  0  0
    2.5159   -0.7119   -1.0190 O   0  0  0  0  0  0  0  0  0  0  0  0
    2.0612    0.2138    0.2027 P   0  0  0  0  0  0  0  0  0  0  0  0
    1.1098    1.8549   -0.2723 S   0  0  0  0  0  0  0  0  0  0  0  0
    3.3641    0.6133    1.0106 O   0  0  0  0  0  0  0  0  0  0  0  0
    4.3623   -0.3442    1.4436 C   0  0  0  0  0  0  0  0  0  0  0  0
    4.2675   -0.5657    2.9397 C   0  0  0  0  0  0  0  0  0  0  0  0
    1.1913   -1.2739    1.4215 S   0  0  0  0  0  0  0  0  0  0  0  0
    0.0763   -2.0982    0.2267 C   0  0  0  0  0  0  0  0  0  0  0  0
   -0.6483   -1.0153   -1.0242 S   0  0  0  0  0  0  0  0  0  0  0  0
   -2.1629   -0.1061    0.1833 P   0  0  0  0  0  0  0  0  0  0  0  0
   -1.6871    0.5704    1.9532 S   0  0  0  0  0  0  0  0  0  0  0  0
   -3.2596   -1.2304    0.2979 O   0  0  0  0  0  0  0  0  0  0  0  0
   -3.9096   -1.8566   -0.8380 C   0  0  0  0  0  0  0  0  0  0  0  0
   -5.2134   -1.1589   -1.1660 C   0  0  0  0  0  0  0  0  0  0  0  0
   -2.8038    0.9379   -0.8233 O   0  0  0  0  0  0  0  0  0  0  0  0
   -2.2905    2.2678   -1.0279 C   0  0  0  0  0  0  0  0  0  0  0  0
   -3.4362    3.1411   -1.4957 C   0  0  0  0  0  0  0  0  0  0  0  0
    3.8845    1.4968   -1.7949 H   0  0  0  0  0  0  0  0  0  0  0  0
    4.8212    0.0410   -2.1745 H   0  0  0  0  0  0  0  0  0  0  0  0
    4.0746    0.9824   -3.4781 H   0  0  0  0  0  0  0  0  0  0  0  0
    2.7271   -1.0824   -2.9802 H   0  0  0  0  0  0  0  0  0  0  0  0
    1.8122    0.4086   -2.6072 H   0  0  0  0  0  0  0  0  0  0  0  0
    4.2249   -1.2780    0.8930 H   0  0  0  0  0  0  0  0  0  0  0  0
    5.3170    0.1099    1.1724 H   0  0  0  0  0  0  0  0  0  0  0  0
    5.0632   -1.2344    3.2522 H   0  0  0  0  0  0  0  0  0  0  0  0
    4.3662    0.3817    3.4625 H   0  0  0  0  0  0  0  0  0  0  0  0
    3.3069   -1.0069    3.1986 H   0  0  0  0  0  0  0  0  0  0  0  0
   -0.7126   -2.5524    0.8247 H   0  0  0  0  0  0  0  0  0  0  0  0
    0.6462   -2.8493   -0.3148 H   0  0  0  0  0  0  0  0  0  0  0  0
   -3.2254   -1.8409   -1.6907 H   0  0  0  0  0  0  0  0  0  0  0  0
   -4.0807   -2.8852   -0.5156 H   0  0  0  0  0  0  0  0  0  0  0  0
   -5.7140   -1.7000   -1.9629 H   0  0  0  0  0  0  0  0  0  0  0  0
   -5.8543   -1.1369   -0.2888 H   0  0  0  0  0  0  0  0  0  0  0  0
   -5.0252   -0.1383   -1.4876 H   0  0  0  0  0  0  0  0  0  0  0  0
   -1.8615    2.6319   -0.0885 H   0  0  0  0  0  0  0  0  0  0  0  0
   -1.4912    2.2165   -1.7716 H   0  0  0  0  0  0  0  0  0  0  0  0
   -4.2150    3.1723   -0.7385 H   0  0  0  0  0  0  0  0  0  0  0  0
   -3.0644    4.1456   -1.6683 H   0  0  0  0  0  0  0  0  0  0  0  0
   -3.8515    2.7471   -2.4188 H   0  0  0  0  0  0  0  0  0  0  0  0
  1  2  1  0  0  0  0
  2  3  1  0  0  0  0
  3  4  1  0  0  0  0
  4  5  2  0  0  0  0
  4  6  2  0  0  0  0
  6  7  1  0  0  0  0
  7  8  1  0  0  0  0
  4  9  1  0  0  0  0
  9 10  1  0  0  0  0
 10 11  1  0  0  0  0
 11 12  1  0  0  0  0
 12 13  2  0  0  0  0
 12 14  2  0  0  0  0
 14 15  1  0  0  0  0
 15 16  1  0  0  0  0
 12 17  2  0  0  0  0
 17 18  1  0  0  0  0
 18 19  1  0  0  0  0
  1 20  1  0  0  0  0
  1 21  1  0  0  0  0
  1 22  1  0  0  0  0
  2 23  1  0  0  0  0
  2 24  1  0  0  0  0
  7 25  1  0  0  0  0
  7 26  1  0  0  0  0
  8 27  1  0  0  0  0
  8 28  1  0  0  0  0
  8 29  1  0  0  0  0
 10 30  1  0  0  0  0
 10 31  1  0  0  0  0
 15 32  1  0  0  0  0
 15 33  1  0  0  0  0
 16 34  1  0  0  0  0
 16 35  1  0  0  0  0
 16 36  1  0  0  0  0
 18 37  1  0  0  0  0
 18 38  1  0  0  0  0
 19 39  1  0  0  0  0
 19 40  1  0  0  0  0
 19 41  1  0  0  0  0
M  END
