 xtb: 6.7.1 (edcfbbe)
          04092505203D

 41 40  0     0  0            999 V2000
    1.7045    0.2413   -3.2843 C   0  0  0  0  0  0  0  0  0  0  0  0
    2.3524    0.3239   -1.9193 C   0  0  0  0  0  0  0  0  0  0  0  0
    1.5351   -0.4348   -1.0005 O   0  0  0  0  0  0  0  0  0  0  0  0
    1.8793   -0.4859    0.5414 P   0  0  0  0  0  0  0  0  0  0  0  0
    2.3982    1.1808    1.4450 S   0  0  0  0  0  0  0  0  0  0  0  0
    3.0354   -1.5817    0.5373 O   0  0  0  0  0  0  0  0  0  0  0  0
    3.8133   -1.8813    1.7134 C   0  0  0  0  0  0  0  0  0  0  0  0
    5.1581   -2.4191    1.2671 C   0  0  0  0  0  0  0  0  0  0  0  0
    0.2486   -1.5317    1.3309 S   0  0  0  0  0  0  0  0  0  0  0  0
   -0.7399   -0.1578    2.0212 C   0  0  0  0  0  0  0  0  0  0  0  0
   -2.3792   -0.0387    1.2854 S   0  0  0  0  0  0  0  0  0  0  0  0
   -1.8106    0.7530   -0.6092 P   0  0  0  0  0  0  0  0  0  0  0  0
   -0.4080    2.1196   -0.5546 S   0  0  0  0  0  0  0  0  0  0  0  0
   -3.2092    1.1556   -1.2463 O   0  0  0  0  0  0  0  0  0  0  0  0
   -4.2435    1.9077   -0.5834 C   0  0  0  0  0  0  0  0  0  0  0  0
   -3.7540    3.2396   -0.0558 C   0  0  0  0  0  0  0  0  0  0  0  0
   -1.3677   -0.4216   -1.5612 O   0  0  0  0  0  0  0  0  0  0  0  0
   -2.2131   -1.5174   -1.9964 C   0  0  0  0  0  0  0  0  0  0  0  0
   -1.9918   -2.7546   -1.1496 C   0  0  0  0  0  0  0  0  0  0  0  0
    1.6441   -0.7945   -3.6048 H   0  0  0  0  0  0  0  0  0  0  0  0
    0.7006    0.6565   -3.2363 H   0  0  0  0  0  0  0  0  0  0  0  0
    2.2952    0.8109   -3.9942 H   0  0  0  0  0  0  0  0  0  0  0  0
    2.4001    1.3579   -1.5600 H   0  0  0  0  0  0  0  0  0  0  0  0
    3.3580   -0.1043   -1.9200 H   0  0  0  0  0  0  0  0  0  0  0  0
    3.9233   -0.9635    2.3012 H   0  0  0  0  0  0  0  0  0  0  0  0
    3.2620   -2.6211    2.2989 H   0  0  0  0  0  0  0  0  0  0  0  0
    5.6958   -1.6631    0.7014 H   0  0  0  0  0  0  0  0  0  0  0  0
    5.7393   -2.6905    2.1422 H   0  0  0  0  0  0  0  0  0  0  0  0
    5.0172   -3.2953    0.6409 H   0  0  0  0  0  0  0  0  0  0  0  0
   -0.1912    0.7763    1.8692 H   0  0  0  0  0  0  0  0  0  0  0  0
   -0.8947   -0.3558    3.0785 H   0  0  0  0  0  0  0  0  0  0  0  0
   -4.9988    2.0404   -1.3601 H   0  0  0  0  0  0  0  0  0  0  0  0
   -4.6446    1.2940    0.2276 H   0  0  0  0  0  0  0  0  0  0  0  0
   -3.2976    3.8202   -0.8541 H   0  0  0  0  0  0  0  0  0  0  0  0
   -4.5905    3.7926    0.3590 H   0  0  0  0  0  0  0  0  0  0  0  0
   -3.0089    3.0859    0.7234 H   0  0  0  0  0  0  0  0  0  0  0  0
   -3.2549   -1.1940   -1.9696 H   0  0  0  0  0  0  0  0  0  0  0  0
   -1.9080   -1.6882   -3.0302 H   0  0  0  0  0  0  0  0  0  0  0  0
   -0.9347   -3.0072   -1.1246 H   0  0  0  0  0  0  0  0  0  0  0  0
   -2.3334   -2.5970   -0.1295 H   0  0  0  0  0  0  0  0  0  0  0  0
   -2.5460   -3.5803   -1.5845 H   0  0  0  0  0  0  0  0  0  0  0  0
  1  2  1  0  0  0  0
  2  3  1  0  0  0  0
  3  4  2  0  0  0  0
  4  5  2  0  0  0  0
  4  6  2  0  0  0  0
  6  7  1  0  0  0  0
  7  8  1  0  0  0  0
  4  9  1  0  0  0  0
  9 10  1  0  0  0  0
 10 11  1  0  0  0  0
 11 12  1  0  0  0  0
 12 13  2  0  0  0  0
 12 14  2  0  0  0  0
 14 15  1  0  0  0  0
 15 16  1  0  0  0  0
 12 17  2  0  0  0  0
 17 18  1  0  0  0  0
 18 19  1  0  0  0  0
  1 20  1  0  0  0  0
  1 21  1  0  0  0  0
  1 22  1  0  0  0  0
  2 23  1  0  0  0  0
  2 24  1  0  0  0  0
  7 25  1  0  0  0  0
  7 26  1  0  0  0  0
  8 27  1  0  0  0  0
  8 28  1  0  0  0  0
  8 29  1  0  0  0  0
 10 30  1  0  0  0  0
 10 31  1  0  0  0  0
 15 32  1  0  0  0  0
 15 33  1  0  0  0  0
 16 34  1  0  0  0  0
 16 35  1  0  0  0  0
 16 36  1  0  0  0  0
 18 37  1  0  0  0  0
 18 38  1  0  0  0  0
 19 39  1  0  0  0  0
 19 40  1  0  0  0  0
 19 41  1  0  0  0  0
M  END
