 xtb: 6.7.1 (edcfbbe)
          04032520493D

 15 15  0     0  0            999 V2000
   -4.1733   -0.0002    0.0114 C   0  0  0  0  0  0  0  0  0  0  0  0
   -2.6775    0.0002   -0.0085 C   0  0  0  0  0  0  0  0  0  0  0  0
   -1.9671    1.1957   -0.0063 C   0  0  0  0  0  0  0  0  0  0  0  0
   -0.5838    1.2060   -0.0026 C   0  0  0  0  0  0  0  0  0  0  0  0
    0.0921    0.0001   -0.0008 C   0  0  0  0  0  0  0  0  0  0  0  0
   -0.5838   -1.2058   -0.0027 C   0  0  0  0  0  0  0  0  0  0  0  0
   -1.9671   -1.1955   -0.0063 C   0  0  0  0  0  0  0  0  0  0  0  0
    2.0192   -0.0000    0.0016 Br  0  0  0  0  0  0  0  0  0  0  0  0
   -4.5667    0.8899   -0.4715 H   0  0  0  0  0  0  0  0  0  0  0  0
   -4.5662   -0.8820   -0.4872 H   0  0  0  0  0  0  0  0  0  0  0  0
   -4.5258   -0.0097    1.0423 H   0  0  0  0  0  0  0  0  0  0  0  0
   -2.4990    2.1348   -0.0084 H   0  0  0  0  0  0  0  0  0  0  0  0
   -0.0388    2.1369   -0.0026 H   0  0  0  0  0  0  0  0  0  0  0  0
   -0.0389   -2.1368   -0.0026 H   0  0  0  0  0  0  0  0  0  0  0  0
   -2.4991   -2.1345   -0.0085 H   0  0  0  0  0  0  0  0  0  0  0  0
  1  2  1  0  0  0  0
  2  3  4  0  0  0  0
  3  4  4  0  0  0  0
  4  5  4  0  0  0  0
  5  6  4  0  0  0  0
  2  7  4  0  0  0  0
  6  7  4  0  0  0  0
  5  8  1  0  0  0  0
  1  9  1  0  0  0  0
  1 10  1  0  0  0  0
  1 11  1  0  0  0  0
  3 12  1  0  0  0  0
  4 13  1  0  0  0  0
  6 14  1  0  0  0  0
  7 15  1  0  0  0  0
M  END
