 xtb: 6.7.1 (edcfbbe)
          04092505203D

 41 40  0     0  0            999 V2000
    2.3287   -1.2688    3.1970 C   0  0  0  0  0  0  0  0  0  0  0  0
    1.7171    0.0516    2.7774 C   0  0  0  0  0  0  0  0  0  0  0  0
    1.2589    0.0389    1.4086 O   0  0  0  0  0  0  0  0  0  0  0  0
    2.1698   -0.2032    0.1360 P   0  0  0  0  0  0  0  0  0  0  0  0
    2.7782   -2.0282   -0.2655 S   0  0  0  0  0  0  0  0  0  0  0  0
    3.3395    0.8447    0.3806 O   0  0  0  0  0  0  0  0  0  0  0  0
    4.5724    0.8006   -0.3593 C   0  0  0  0  0  0  0  0  0  0  0  0
    4.3809    1.2225   -1.8013 C   0  0  0  0  0  0  0  0  0  0  0  0
    0.9196    0.6697   -1.3328 S   0  0  0  0  0  0  0  0  0  0  0  0
    0.0083   -0.8386   -1.7562 C   0  0  0  0  0  0  0  0  0  0  0  0
   -0.9286   -1.5137   -0.3614 S   0  0  0  0  0  0  0  0  0  0  0  0
   -2.2069    0.1607   -0.1048 P   0  0  0  0  0  0  0  0  0  0  0  0
   -2.7764    1.0704   -1.7494 S   0  0  0  0  0  0  0  0  0  0  0  0
   -1.4293    1.0785    0.9252 O   0  0  0  0  0  0  0  0  0  0  0  0
   -1.3420    2.5085    0.7991 C   0  0  0  0  0  0  0  0  0  0  0  0
   -2.5704    3.1696    1.3889 C   0  0  0  0  0  0  0  0  0  0  0  0
   -3.3327   -0.3954    0.8645 O   0  0  0  0  0  0  0  0  0  0  0  0
   -4.0805   -1.6103    0.6727 C   0  0  0  0  0  0  0  0  0  0  0  0
   -4.7414   -1.6873   -0.6882 C   0  0  0  0  0  0  0  0  0  0  0  0
    1.6323   -2.0834    3.0107 H   0  0  0  0  0  0  0  0  0  0  0  0
    3.2403   -1.4595    2.6322 H   0  0  0  0  0  0  0  0  0  0  0  0
    2.5679   -1.2347    4.2553 H   0  0  0  0  0  0  0  0  0  0  0  0
    2.4324    0.8696    2.8912 H   0  0  0  0  0  0  0  0  0  0  0  0
    0.8082    0.2680    3.3423 H   0  0  0  0  0  0  0  0  0  0  0  0
    5.2272    1.4868    0.1794 H   0  0  0  0  0  0  0  0  0  0  0  0
    4.9711   -0.2176   -0.3062 H   0  0  0  0  0  0  0  0  0  0  0  0
    5.3483    1.2862   -2.2889 H   0  0  0  0  0  0  0  0  0  0  0  0
    3.7690    0.4894   -2.3251 H   0  0  0  0  0  0  0  0  0  0  0  0
    3.8856    2.1889   -1.8507 H   0  0  0  0  0  0  0  0  0  0  0  0
    0.7063   -1.6168   -2.0637 H   0  0  0  0  0  0  0  0  0  0  0  0
   -0.6734   -0.5684   -2.5623 H   0  0  0  0  0  0  0  0  0  0  0  0
   -0.4323    2.7755    1.3391 H   0  0  0  0  0  0  0  0  0  0  0  0
   -1.2297    2.7688   -0.2591 H   0  0  0  0  0  0  0  0  0  0  0  0
   -2.4640    4.2481    1.3316 H   0  0  0  0  0  0  0  0  0  0  0  0
   -3.4518    2.8671    0.8248 H   0  0  0  0  0  0  0  0  0  0  0  0
   -2.6981    2.8695    2.4252 H   0  0  0  0  0  0  0  0  0  0  0  0
   -3.4024   -2.4555    0.8221 H   0  0  0  0  0  0  0  0  0  0  0  0
   -4.8204   -1.5837    1.4748 H   0  0  0  0  0  0  0  0  0  0  0  0
   -5.3642   -2.5748   -0.7361 H   0  0  0  0  0  0  0  0  0  0  0  0
   -5.3549   -0.8064   -0.8624 H   0  0  0  0  0  0  0  0  0  0  0  0
   -3.9857   -1.7419   -1.4706 H   0  0  0  0  0  0  0  0  0  0  0  0
  1  2  1  0  0  0  0
  2  3  1  0  0  0  0
  3  4  2  0  0  0  0
  4  5  2  0  0  0  0
  4  6  2  0  0  0  0
  6  7  1  0  0  0  0
  7  8  1  0  0  0  0
  4  9  1  0  0  0  0
  9 10  1  0  0  0  0
 10 11  1  0  0  0  0
 11 12  1  0  0  0  0
 12 13  2  0  0  0  0
 12 14  2  0  0  0  0
 14 15  1  0  0  0  0
 15 16  1  0  0  0  0
 12 17  2  0  0  0  0
 17 18  1  0  0  0  0
 18 19  1  0  0  0  0
  1 20  1  0  0  0  0
  1 21  1  0  0  0  0
  1 22  1  0  0  0  0
  2 23  1  0  0  0  0
  2 24  1  0  0  0  0
  7 25  1  0  0  0  0
  7 26  1  0  0  0  0
  8 27  1  0  0  0  0
  8 28  1  0  0  0  0
  8 29  1  0  0  0  0
 10 30  1  0  0  0  0
 10 31  1  0  0  0  0
 15 32  1  0  0  0  0
 15 33  1  0  0  0  0
 16 34  1  0  0  0  0
 16 35  1  0  0  0  0
 16 36  1  0  0  0  0
 18 37  1  0  0  0  0
 18 38  1  0  0  0  0
 19 39  1  0  0  0  0
 19 40  1  0  0  0  0
 19 41  1  0  0  0  0
M  END
