 xtb: 6.7.1 (edcfbbe)
          04092505213D

 41 40  0     0  0            999 V2000
    2.2970   -3.0064   -0.2750 C   0  0  0  0  0  0  0  0  0  0  0  0
    2.9529   -2.0090    0.6586 C   0  0  0  0  0  0  0  0  0  0  0  0
    2.2127   -0.7697    0.6900 O   0  0  0  0  0  0  0  0  0  0  0  0
    2.6279    0.4846   -0.2144 P   0  0  0  0  0  0  0  0  0  0  0  0
    3.4161    0.0800   -1.9557 S   0  0  0  0  0  0  0  0  0  0  0  0
    3.6381    1.3406    0.6581 O   0  0  0  0  0  0  0  0  0  0  0  0
    3.3812    1.7255    2.0321 C   0  0  0  0  0  0  0  0  0  0  0  0
    2.8444    3.1407    2.1059 C   0  0  0  0  0  0  0  0  0  0  0  0
    0.8064    1.5459   -0.2006 S   0  0  0  0  0  0  0  0  0  0  0  0
    0.0232    0.6098   -1.5400 C   0  0  0  0  0  0  0  0  0  0  0  0
   -0.6047   -1.0087   -1.0142 S   0  0  0  0  0  0  0  0  0  0  0  0
   -2.4561   -0.3779   -0.2049 P   0  0  0  0  0  0  0  0  0  0  0  0
   -2.7820    1.5475    0.0170 S   0  0  0  0  0  0  0  0  0  0  0  0
   -2.6609   -1.2513    1.1089 O   0  0  0  0  0  0  0  0  0  0  0  0
   -2.2621   -0.7937    2.4117 C   0  0  0  0  0  0  0  0  0  0  0  0
   -0.7555   -0.7683    2.5697 C   0  0  0  0  0  0  0  0  0  0  0  0
   -3.4031   -1.1155   -1.2390 O   0  0  0  0  0  0  0  0  0  0  0  0
   -4.7959   -0.7735   -1.3922 C   0  0  0  0  0  0  0  0  0  0  0  0
   -5.6144   -1.1576   -0.1772 C   0  0  0  0  0  0  0  0  0  0  0  0
    2.3309   -2.6392   -1.2983 H   0  0  0  0  0  0  0  0  0  0  0  0
    2.8280   -3.9511   -0.2191 H   0  0  0  0  0  0  0  0  0  0  0  0
    1.2572   -3.1557    0.0013 H   0  0  0  0  0  0  0  0  0  0  0  0
    3.9823   -1.8067    0.3477 H   0  0  0  0  0  0  0  0  0  0  0  0
    2.9428   -2.3627    1.6910 H   0  0  0  0  0  0  0  0  0  0  0  0
    2.6837    1.0121    2.4775 H   0  0  0  0  0  0  0  0  0  0  0  0
    4.3548    1.6474    2.5190 H   0  0  0  0  0  0  0  0  0  0  0  0
    1.8662    3.2056    1.6334 H   0  0  0  0  0  0  0  0  0  0  0  0
    2.7553    3.4321    3.1478 H   0  0  0  0  0  0  0  0  0  0  0  0
    3.5223    3.8220    1.5993 H   0  0  0  0  0  0  0  0  0  0  0  0
    0.7636    0.4267   -2.3194 H   0  0  0  0  0  0  0  0  0  0  0  0
   -0.7974    1.2238   -1.9055 H   0  0  0  0  0  0  0  0  0  0  0  0
   -2.6812    0.2051    2.5724 H   0  0  0  0  0  0  0  0  0  0  0  0
   -2.7260   -1.5069    3.0946 H   0  0  0  0  0  0  0  0  0  0  0  0
   -0.3247   -0.0062    1.9213 H   0  0  0  0  0  0  0  0  0  0  0  0
   -0.5058   -0.5340    3.5996 H   0  0  0  0  0  0  0  0  0  0  0  0
   -0.3308   -1.7333    2.3043 H   0  0  0  0  0  0  0  0  0  0  0  0
   -4.8684    0.3023   -1.5820 H   0  0  0  0  0  0  0  0  0  0  0  0
   -5.1031   -1.3288   -2.2794 H   0  0  0  0  0  0  0  0  0  0  0  0
   -6.6668   -0.9942   -0.3871 H   0  0  0  0  0  0  0  0  0  0  0  0
   -5.4515   -2.2036    0.0689 H   0  0  0  0  0  0  0  0  0  0  0  0
   -5.3244   -0.5452    0.6752 H   0  0  0  0  0  0  0  0  0  0  0  0
  1  2  1  0  0  0  0
  2  3  1  0  0  0  0
  3  4  1  0  0  0  0
  4  5  2  0  0  0  0
  4  6  2  0  0  0  0
  6  7  1  0  0  0  0
  7  8  1  0  0  0  0
  4  9  1  0  0  0  0
  9 10  1  0  0  0  0
 10 11  1  0  0  0  0
 11 12  1  0  0  0  0
 12 13  2  0  0  0  0
 12 14  2  0  0  0  0
 14 15  1  0  0  0  0
 15 16  1  0  0  0  0
 12 17  2  0  0  0  0
 17 18  1  0  0  0  0
 18 19  1  0  0  0  0
  1 20  1  0  0  0  0
  1 21  1  0  0  0  0
  1 22  1  0  0  0  0
  2 23  1  0  0  0  0
  2 24  1  0  0  0  0
  7 25  1  0  0  0  0
  7 26  1  0  0  0  0
  8 27  1  0  0  0  0
  8 28  1  0  0  0  0
  8 29  1  0  0  0  0
 10 30  1  0  0  0  0
 10 31  1  0  0  0  0
 15 32  1  0  0  0  0
 15 33  1  0  0  0  0
 16 34  1  0  0  0  0
 16 35  1  0  0  0  0
 16 36  1  0  0  0  0
 18 37  1  0  0  0  0
 18 38  1  0  0  0  0
 19 39  1  0  0  0  0
 19 40  1  0  0  0  0
 19 41  1  0  0  0  0
M  END
