 xtb: 6.7.1 (edcfbbe)
          04092505213D

 41 40  0     0  0            999 V2000
    4.2786   -2.1847   -1.2029 C   0  0  0  0  0  0  0  0  0  0  0  0
    4.4301   -0.7526   -0.7298 C   0  0  0  0  0  0  0  0  0  0  0  0
    3.3754    0.0776   -1.2874 O   0  0  0  0  0  0  0  0  0  0  0  0
    2.1892    0.6869   -0.4501 P   0  0  0  0  0  0  0  0  0  0  0  0
    1.1281    1.8773   -1.5790 S   0  0  0  0  0  0  0  0  0  0  0  0
    2.9604    1.3497    0.7680 O   0  0  0  0  0  0  0  0  0  0  0  0
    2.3575    2.1510    1.8008 C   0  0  0  0  0  0  0  0  0  0  0  0
    2.0890    1.3178    3.0382 C   0  0  0  0  0  0  0  0  0  0  0  0
    1.2306   -1.0156    0.4166 S   0  0  0  0  0  0  0  0  0  0  0  0
    0.4608   -1.6253   -1.0988 C   0  0  0  0  0  0  0  0  0  0  0  0
   -1.1098   -0.8055   -1.5664 S   0  0  0  0  0  0  0  0  0  0  0  0
   -1.8739   -0.1762    0.3309 P   0  0  0  0  0  0  0  0  0  0  0  0
   -1.1160    1.3807    1.2418 S   0  0  0  0  0  0  0  0  0  0  0  0
   -1.8765   -1.4498    1.2492 O   0  0  0  0  0  0  0  0  0  0  0  0
   -2.5300   -2.7006    0.9050 C   0  0  0  0  0  0  0  0  0  0  0  0
   -3.9043   -2.7719    1.5375 C   0  0  0  0  0  0  0  0  0  0  0  0
   -3.4039    0.0136   -0.0582 O   0  0  0  0  0  0  0  0  0  0  0  0
   -3.8454    1.1379   -0.8433 C   0  0  0  0  0  0  0  0  0  0  0  0
   -5.3462    1.2614   -0.6769 C   0  0  0  0  0  0  0  0  0  0  0  0
    4.2057   -2.2124   -2.2867 H   0  0  0  0  0  0  0  0  0  0  0  0
    5.1507   -2.7507   -0.8910 H   0  0  0  0  0  0  0  0  0  0  0  0
    3.3899   -2.6392   -0.7728 H   0  0  0  0  0  0  0  0  0  0  0  0
    5.3543   -0.3074   -1.1009 H   0  0  0  0  0  0  0  0  0  0  0  0
    4.4021   -0.6847    0.3588 H   0  0  0  0  0  0  0  0  0  0  0  0
    3.0899    2.9352    2.0009 H   0  0  0  0  0  0  0  0  0  0  0  0
    1.4349    2.6007    1.4217 H   0  0  0  0  0  0  0  0  0  0  0  0
    3.0002    0.8247    3.3647 H   0  0  0  0  0  0  0  0  0  0  0  0
    1.7246    1.9680    3.8266 H   0  0  0  0  0  0  0  0  0  0  0  0
    1.3289    0.5666    2.8325 H   0  0  0  0  0  0  0  0  0  0  0  0
    0.2614   -2.6830   -0.9432 H   0  0  0  0  0  0  0  0  0  0  0  0
    1.1358   -1.4710   -1.9405 H   0  0  0  0  0  0  0  0  0  0  0  0
   -2.5931   -2.7820   -0.1834 H   0  0  0  0  0  0  0  0  0  0  0  0
   -1.8664   -3.4695    1.3046 H   0  0  0  0  0  0  0  0  0  0  0  0
   -3.8264   -2.6413    2.6132 H   0  0  0  0  0  0  0  0  0  0  0  0
   -4.5437   -1.9903    1.1358 H   0  0  0  0  0  0  0  0  0  0  0  0
   -4.3437   -3.7412    1.3237 H   0  0  0  0  0  0  0  0  0  0  0  0
   -3.3256    2.0364   -0.4929 H   0  0  0  0  0  0  0  0  0  0  0  0
   -3.5698    0.9557   -1.8861 H   0  0  0  0  0  0  0  0  0  0  0  0
   -5.8336    0.3517   -1.0154 H   0  0  0  0  0  0  0  0  0  0  0  0
   -5.5921    1.4292    0.3679 H   0  0  0  0  0  0  0  0  0  0  0  0
   -5.7001    2.1000   -1.2674 H   0  0  0  0  0  0  0  0  0  0  0  0
  1  2  1  0  0  0  0
  2  3  1  0  0  0  0
  3  4  2  0  0  0  0
  4  5  2  0  0  0  0
  4  6  2  0  0  0  0
  6  7  1  0  0  0  0
  7  8  1  0  0  0  0
  4  9  1  0  0  0  0
  9 10  1  0  0  0  0
 10 11  1  0  0  0  0
 11 12  1  0  0  0  0
 12 13  2  0  0  0  0
 12 14  2  0  0  0  0
 14 15  1  0  0  0  0
 15 16  1  0  0  0  0
 12 17  2  0  0  0  0
 17 18  1  0  0  0  0
 18 19  1  0  0  0  0
  1 20  1  0  0  0  0
  1 21  1  0  0  0  0
  1 22  1  0  0  0  0
  2 23  1  0  0  0  0
  2 24  1  0  0  0  0
  7 25  1  0  0  0  0
  7 26  1  0  0  0  0
  8 27  1  0  0  0  0
  8 28  1  0  0  0  0
  8 29  1  0  0  0  0
 10 30  1  0  0  0  0
 10 31  1  0  0  0  0
 15 32  1  0  0  0  0
 15 33  1  0  0  0  0
 16 34  1  0  0  0  0
 16 35  1  0  0  0  0
 16 36  1  0  0  0  0
 18 37  1  0  0  0  0
 18 38  1  0  0  0  0
 19 39  1  0  0  0  0
 19 40  1  0  0  0  0
 19 41  1  0  0  0  0
M  END
