 xtb: 6.7.1 (edcfbbe)
          04092505203D

 41 40  0     0  0            999 V2000
    2.7232    0.5045   -3.3586 C   0  0  0  0  0  0  0  0  0  0  0  0
    2.8481    0.8576   -1.8917 C   0  0  0  0  0  0  0  0  0  0  0  0
    2.4511   -0.2973   -1.1240 O   0  0  0  0  0  0  0  0  0  0  0  0
    2.1181   -0.2284    0.4232 P   0  0  0  0  0  0  0  0  0  0  0  0
    1.1067    1.3759    0.9559 S   0  0  0  0  0  0  0  0  0  0  0  0
    3.5736   -0.3302    1.0556 O   0  0  0  0  0  0  0  0  0  0  0  0
    3.8889   -0.7804    2.3881 C   0  0  0  0  0  0  0  0  0  0  0  0
    2.9861   -0.1870    3.4487 C   0  0  0  0  0  0  0  0  0  0  0  0
    1.3216   -2.1448    0.7285 S   0  0  0  0  0  0  0  0  0  0  0  0
   -0.2764   -1.9832   -0.1169 C   0  0  0  0  0  0  0  0  0  0  0  0
   -1.5043   -1.0177    0.8114 S   0  0  0  0  0  0  0  0  0  0  0  0
   -1.9011    0.5621   -0.5699 P   0  0  0  0  0  0  0  0  0  0  0  0
   -0.7837    0.5775   -2.1762 S   0  0  0  0  0  0  0  0  0  0  0  0
   -1.8591    1.9227    0.2168 O   0  0  0  0  0  0  0  0  0  0  0  0
   -2.8543    2.3926    1.1573 C   0  0  0  0  0  0  0  0  0  0  0  0
   -2.9681    1.4976    2.3723 C   0  0  0  0  0  0  0  0  0  0  0  0
   -3.4653    0.4415   -0.8719 O   0  0  0  0  0  0  0  0  0  0  0  0
   -4.0097   -0.3804   -1.9167 C   0  0  0  0  0  0  0  0  0  0  0  0
   -3.8057   -1.8603   -1.6622 C   0  0  0  0  0  0  0  0  0  0  0  0
    1.6826    0.3030   -3.6022 H   0  0  0  0  0  0  0  0  0  0  0  0
    3.0739    1.3395   -3.9558 H   0  0  0  0  0  0  0  0  0  0  0  0
    3.3179   -0.3771   -3.5781 H   0  0  0  0  0  0  0  0  0  0  0  0
    2.1954    1.6964   -1.6250 H   0  0  0  0  0  0  0  0  0  0  0  0
    3.8773    1.1047   -1.6204 H   0  0  0  0  0  0  0  0  0  0  0  0
    3.8250   -1.8718    2.3922 H   0  0  0  0  0  0  0  0  0  0  0  0
    4.9258   -0.4686    2.5261 H   0  0  0  0  0  0  0  0  0  0  0  0
    1.9592   -0.5178    3.2945 H   0  0  0  0  0  0  0  0  0  0  0  0
    3.3196   -0.5139    4.4284 H   0  0  0  0  0  0  0  0  0  0  0  0
    3.0077    0.8996    3.4032 H   0  0  0  0  0  0  0  0  0  0  0  0
   -0.6489   -3.0000   -0.2110 H   0  0  0  0  0  0  0  0  0  0  0  0
   -0.1230   -1.5153   -1.0937 H   0  0  0  0  0  0  0  0  0  0  0  0
   -2.4875    3.3851    1.4237 H   0  0  0  0  0  0  0  0  0  0  0  0
   -3.8090    2.4717    0.6330 H   0  0  0  0  0  0  0  0  0  0  0  0
   -3.3613    0.5219    2.0900 H   0  0  0  0  0  0  0  0  0  0  0  0
   -1.9902    1.3637    2.8293 H   0  0  0  0  0  0  0  0  0  0  0  0
   -3.6399    1.9567    3.0908 H   0  0  0  0  0  0  0  0  0  0  0  0
   -5.0685   -0.1170   -1.9248 H   0  0  0  0  0  0  0  0  0  0  0  0
   -3.5466   -0.0859   -2.8639 H   0  0  0  0  0  0  0  0  0  0  0  0
   -2.7508   -2.1121   -1.7575 H   0  0  0  0  0  0  0  0  0  0  0  0
   -4.1457   -2.1243   -0.6642 H   0  0  0  0  0  0  0  0  0  0  0  0
   -4.3682   -2.4275   -2.3968 H   0  0  0  0  0  0  0  0  0  0  0  0
  1  2  1  0  0  0  0
  2  3  1  0  0  0  0
  3  4  2  0  0  0  0
  4  5  2  0  0  0  0
  4  6  2  0  0  0  0
  6  7  1  0  0  0  0
  7  8  1  0  0  0  0
  4  9  1  0  0  0  0
  9 10  1  0  0  0  0
 10 11  1  0  0  0  0
 11 12  1  0  0  0  0
 12 13  2  0  0  0  0
 12 14  2  0  0  0  0
 14 15  1  0  0  0  0
 15 16  1  0  0  0  0
 12 17  2  0  0  0  0
 17 18  1  0  0  0  0
 18 19  1  0  0  0  0
  1 20  1  0  0  0  0
  1 21  1  0  0  0  0
  1 22  1  0  0  0  0
  2 23  1  0  0  0  0
  2 24  1  0  0  0  0
  7 25  1  0  0  0  0
  7 26  1  0  0  0  0
  8 27  1  0  0  0  0
  8 28  1  0  0  0  0
  8 29  1  0  0  0  0
 10 30  1  0  0  0  0
 10 31  1  0  0  0  0
 15 32  1  0  0  0  0
 15 33  1  0  0  0  0
 16 34  1  0  0  0  0
 16 35  1  0  0  0  0
 16 36  1  0  0  0  0
 18 37  1  0  0  0  0
 18 38  1  0  0  0  0
 19 39  1  0  0  0  0
 19 40  1  0  0  0  0
 19 41  1  0  0  0  0
M  END
