 xtb: 6.7.1 (edcfbbe)
          04092505213D

 41 40  0     0  0            999 V2000
    3.4445    2.9739    0.1307 C   0  0  0  0  0  0  0  0  0  0  0  0
    3.4707    1.7082   -0.7028 C   0  0  0  0  0  0  0  0  0  0  0  0
    3.5333    0.5252    0.1177 O   0  0  0  0  0  0  0  0  0  0  0  0
    2.2891   -0.1116    0.8688 P   0  0  0  0  0  0  0  0  0  0  0  0
    1.5122    0.8488    2.3854 S   0  0  0  0  0  0  0  0  0  0  0  0
    2.8431   -1.5067    1.3482 O   0  0  0  0  0  0  0  0  0  0  0  0
    3.6025   -2.4055    0.5010 C   0  0  0  0  0  0  0  0  0  0  0  0
    5.0880   -2.2331    0.7416 C   0  0  0  0  0  0  0  0  0  0  0  0
    0.9738   -0.5685   -0.7595 S   0  0  0  0  0  0  0  0  0  0  0  0
   -0.2983   -1.3873    0.2389 C   0  0  0  0  0  0  0  0  0  0  0  0
   -1.5094   -0.2492    0.9658 S   0  0  0  0  0  0  0  0  0  0  0  0
   -2.6522    0.1477   -0.7956 P   0  0  0  0  0  0  0  0  0  0  0  0
   -2.3961   -1.1197   -2.2747 S   0  0  0  0  0  0  0  0  0  0  0  0
   -2.4316    1.6758   -1.1471 O   0  0  0  0  0  0  0  0  0  0  0  0
   -1.2223    2.1870   -1.7392 C   0  0  0  0  0  0  0  0  0  0  0  0
   -0.3888    2.9196   -0.7047 C   0  0  0  0  0  0  0  0  0  0  0  0
   -4.1330    0.3297   -0.2789 O   0  0  0  0  0  0  0  0  0  0  0  0
   -5.0565   -0.7722   -0.2106 C   0  0  0  0  0  0  0  0  0  0  0  0
   -4.6693   -1.7826    0.8509 C   0  0  0  0  0  0  0  0  0  0  0  0
    3.4638    3.8371   -0.5268 H   0  0  0  0  0  0  0  0  0  0  0  0
    2.5455    3.0099    0.7417 H   0  0  0  0  0  0  0  0  0  0  0  0
    4.3085    3.0061    0.7890 H   0  0  0  0  0  0  0  0  0  0  0  0
    4.3769    1.6533   -1.3093 H   0  0  0  0  0  0  0  0  0  0  0  0
    2.5930    1.6403   -1.3514 H   0  0  0  0  0  0  0  0  0  0  0  0
    3.2679   -3.4038    0.7892 H   0  0  0  0  0  0  0  0  0  0  0  0
    3.3440   -2.2148   -0.5441 H   0  0  0  0  0  0  0  0  0  0  0  0
    5.4003   -1.2295    0.4662 H   0  0  0  0  0  0  0  0  0  0  0  0
    5.3152   -2.3935    1.7920 H   0  0  0  0  0  0  0  0  0  0  0  0
    5.6317   -2.9567    0.1423 H   0  0  0  0  0  0  0  0  0  0  0  0
    0.1705   -1.9100    1.0697 H   0  0  0  0  0  0  0  0  0  0  0  0
   -0.8104   -2.0749   -0.4345 H   0  0  0  0  0  0  0  0  0  0  0  0
   -0.6639    1.3641   -2.1995 H   0  0  0  0  0  0  0  0  0  0  0  0
   -1.5603    2.8710   -2.5205 H   0  0  0  0  0  0  0  0  0  0  0  0
    0.4627    3.3814   -1.1944 H   0  0  0  0  0  0  0  0  0  0  0  0
   -0.9881    3.6883   -0.2254 H   0  0  0  0  0  0  0  0  0  0  0  0
   -0.0316    2.2383    0.0661 H   0  0  0  0  0  0  0  0  0  0  0  0
   -6.0115   -0.2966    0.0169 H   0  0  0  0  0  0  0  0  0  0  0  0
   -5.1039   -1.2478   -1.1956 H   0  0  0  0  0  0  0  0  0  0  0  0
   -3.7511   -2.2928    0.5629 H   0  0  0  0  0  0  0  0  0  0  0  0
   -4.5108   -1.2859    1.8051 H   0  0  0  0  0  0  0  0  0  0  0  0
   -5.4621   -2.5167    0.9535 H   0  0  0  0  0  0  0  0  0  0  0  0
  1  2  1  0  0  0  0
  2  3  1  0  0  0  0
  3  4  2  0  0  0  0
  4  5  2  0  0  0  0
  4  6  2  0  0  0  0
  6  7  1  0  0  0  0
  7  8  1  0  0  0  0
  4  9  1  0  0  0  0
  9 10  1  0  0  0  0
 10 11  1  0  0  0  0
 11 12  1  0  0  0  0
 12 13  2  0  0  0  0
 12 14  2  0  0  0  0
 14 15  1  0  0  0  0
 15 16  1  0  0  0  0
 12 17  2  0  0  0  0
 17 18  1  0  0  0  0
 18 19  1  0  0  0  0
  1 20  1  0  0  0  0
  1 21  1  0  0  0  0
  1 22  1  0  0  0  0
  2 23  1  0  0  0  0
  2 24  1  0  0  0  0
  7 25  1  0  0  0  0
  7 26  1  0  0  0  0
  8 27  1  0  0  0  0
  8 28  1  0  0  0  0
  8 29  1  0  0  0  0
 10 30  1  0  0  0  0
 10 31  1  0  0  0  0
 15 32  1  0  0  0  0
 15 33  1  0  0  0  0
 16 34  1  0  0  0  0
 16 35  1  0  0  0  0
 16 36  1  0  0  0  0
 18 37  1  0  0  0  0
 18 38  1  0  0  0  0
 19 39  1  0  0  0  0
 19 40  1  0  0  0  0
 19 41  1  0  0  0  0
M  END
