 xtb: 6.7.1 (edcfbbe)
          04092505213D

 41 40  0     0  0            999 V2000
    1.5944   -2.8357    1.1119 C   0  0  0  0  0  0  0  0  0  0  0  0
    1.7845   -1.5057    1.8117 C   0  0  0  0  0  0  0  0  0  0  0  0
    2.8376   -0.7159    1.2330 O   0  0  0  0  0  0  0  0  0  0  0  0
    2.8048   -0.0799   -0.2268 P   0  0  0  0  0  0  0  0  0  0  0  0
    3.0487   -1.2709   -1.7581 S   0  0  0  0  0  0  0  0  0  0  0  0
    3.9801    0.9608   -0.1575 O   0  0  0  0  0  0  0  0  0  0  0  0
    4.0781    2.0003    0.8493 C   0  0  0  0  0  0  0  0  0  0  0  0
    4.9907    1.5696    1.9792 C   0  0  0  0  0  0  0  0  0  0  0  0
    1.0151    1.1145   -0.2418 S   0  0  0  0  0  0  0  0  0  0  0  0
    0.0705    0.1735   -1.4636 C   0  0  0  0  0  0  0  0  0  0  0  0
   -1.0878   -0.9898   -0.7116 S   0  0  0  0  0  0  0  0  0  0  0  0
   -2.5893    0.4618   -0.2660 P   0  0  0  0  0  0  0  0  0  0  0  0
   -2.9268    1.7562   -1.6935 S   0  0  0  0  0  0  0  0  0  0  0  0
   -2.1182    1.1634    1.0615 O   0  0  0  0  0  0  0  0  0  0  0  0
   -1.8637    0.4510    2.2990 C   0  0  0  0  0  0  0  0  0  0  0  0
   -3.0638    0.5311    3.2196 C   0  0  0  0  0  0  0  0  0  0  0  0
   -3.8398   -0.3940    0.2072 O   0  0  0  0  0  0  0  0  0  0  0  0
   -4.7324   -1.0431   -0.7186 C   0  0  0  0  0  0  0  0  0  0  0  0
   -4.2982   -2.4683   -0.9996 C   0  0  0  0  0  0  0  0  0  0  0  0
    2.5402   -3.3678    1.0512 H   0  0  0  0  0  0  0  0  0  0  0  0
    0.8794   -3.4340    1.6672 H   0  0  0  0  0  0  0  0  0  0  0  0
    1.2159   -2.6869    0.1018 H   0  0  0  0  0  0  0  0  0  0  0  0
    2.1056   -1.6441    2.8456 H   0  0  0  0  0  0  0  0  0  0  0  0
    0.8601   -0.9205    1.7877 H   0  0  0  0  0  0  0  0  0  0  0  0
    4.4865    2.8591    0.3136 H   0  0  0  0  0  0  0  0  0  0  0  0
    3.0746    2.2389    1.2119 H   0  0  0  0  0  0  0  0  0  0  0  0
    4.5796    0.7027    2.4888 H   0  0  0  0  0  0  0  0  0  0  0  0
    5.9699    1.3112    1.5857 H   0  0  0  0  0  0  0  0  0  0  0  0
    5.0923    2.3883    2.6847 H   0  0  0  0  0  0  0  0  0  0  0  0
    0.7648   -0.4042   -2.0789 H   0  0  0  0  0  0  0  0  0  0  0  0
   -0.4943    0.8879   -2.0643 H   0  0  0  0  0  0  0  0  0  0  0  0
   -1.6170   -0.5885    2.0649 H   0  0  0  0  0  0  0  0  0  0  0  0
   -0.9969    0.9574    2.7286 H   0  0  0  0  0  0  0  0  0  0  0  0
   -3.9158    0.0269    2.7719 H   0  0  0  0  0  0  0  0  0  0  0  0
   -2.8190    0.0540    4.1635 H   0  0  0  0  0  0  0  0  0  0  0  0
   -3.3262    1.5699    3.3994 H   0  0  0  0  0  0  0  0  0  0  0  0
   -5.7038   -1.0172   -0.2215 H   0  0  0  0  0  0  0  0  0  0  0  0
   -4.7794   -0.4500   -1.6378 H   0  0  0  0  0  0  0  0  0  0  0  0
   -3.3402   -2.4850   -1.5142 H   0  0  0  0  0  0  0  0  0  0  0  0
   -4.2043   -3.0200   -0.0687 H   0  0  0  0  0  0  0  0  0  0  0  0
   -5.0436   -2.9474   -1.6262 H   0  0  0  0  0  0  0  0  0  0  0  0
  1  2  1  0  0  0  0
  2  3  1  0  0  0  0
  3  4  2  0  0  0  0
  4  5  2  0  0  0  0
  4  6  2  0  0  0  0
  6  7  1  0  0  0  0
  7  8  1  0  0  0  0
  4  9  1  0  0  0  0
  9 10  1  0  0  0  0
 10 11  1  0  0  0  0
 11 12  1  0  0  0  0
 12 13  2  0  0  0  0
 12 14  2  0  0  0  0
 14 15  1  0  0  0  0
 15 16  1  0  0  0  0
 12 17  2  0  0  0  0
 17 18  1  0  0  0  0
 18 19  1  0  0  0  0
  1 20  1  0  0  0  0
  1 21  1  0  0  0  0
  1 22  1  0  0  0  0
  2 23  1  0  0  0  0
  2 24  1  0  0  0  0
  7 25  1  0  0  0  0
  7 26  1  0  0  0  0
  8 27  1  0  0  0  0
  8 28  1  0  0  0  0
  8 29  1  0  0  0  0
 10 30  1  0  0  0  0
 10 31  1  0  0  0  0
 15 32  1  0  0  0  0
 15 33  1  0  0  0  0
 16 34  1  0  0  0  0
 16 35  1  0  0  0  0
 16 36  1  0  0  0  0
 18 37  1  0  0  0  0
 18 38  1  0  0  0  0
 19 39  1  0  0  0  0
 19 40  1  0  0  0  0
 19 41  1  0  0  0  0
M  END
