 xtb: 6.7.1 (edcfbbe)
          04092505213D

 41 40  0     0  0            999 V2000
    2.7695    1.6077   -2.9137 C   0  0  0  0  0  0  0  0  0  0  0  0
    2.8778    1.4944   -1.4080 C   0  0  0  0  0  0  0  0  0  0  0  0
    2.5450    0.1389   -1.0389 O   0  0  0  0  0  0  0  0  0  0  0  0
    2.1535   -0.2787    0.4364 P   0  0  0  0  0  0  0  0  0  0  0  0
    0.9832    1.0152    1.3509 S   0  0  0  0  0  0  0  0  0  0  0  0
    3.5871   -0.4460    1.1026 O   0  0  0  0  0  0  0  0  0  0  0  0
    3.8967   -1.2382    2.2662 C   0  0  0  0  0  0  0  0  0  0  0  0
    2.9057   -1.0539    3.3959 C   0  0  0  0  0  0  0  0  0  0  0  0
    1.5440   -2.2654    0.1177 S   0  0  0  0  0  0  0  0  0  0  0  0
   -0.0541   -2.0120   -0.7003 C   0  0  0  0  0  0  0  0  0  0  0  0
   -1.3760   -1.4879    0.4404 S   0  0  0  0  0  0  0  0  0  0  0  0
   -1.9052    0.3458   -0.4785 P   0  0  0  0  0  0  0  0  0  0  0  0
   -0.7241    1.0980   -1.8356 S   0  0  0  0  0  0  0  0  0  0  0  0
   -2.2277    1.1945    0.8299 O   0  0  0  0  0  0  0  0  0  0  0  0
   -2.0933    2.6258    0.8776 C   0  0  0  0  0  0  0  0  0  0  0  0
   -3.1734    3.3127    0.0671 C   0  0  0  0  0  0  0  0  0  0  0  0
   -3.3167    0.0591   -1.1597 O   0  0  0  0  0  0  0  0  0  0  0  0
   -4.4310   -0.5022   -0.4267 C   0  0  0  0  0  0  0  0  0  0  0  0
   -4.7117   -1.9139   -0.9028 C   0  0  0  0  0  0  0  0  0  0  0  0
    1.7403    1.4418   -3.2233 H   0  0  0  0  0  0  0  0  0  0  0  0
    3.0767    2.6029   -3.2175 H   0  0  0  0  0  0  0  0  0  0  0  0
    3.4081    0.8682   -3.3874 H   0  0  0  0  0  0  0  0  0  0  0  0
    2.1812    2.1741   -0.9057 H   0  0  0  0  0  0  0  0  0  0  0  0
    3.8931    1.6957   -1.0584 H   0  0  0  0  0  0  0  0  0  0  0  0
    3.9358   -2.2849    1.9528 H   0  0  0  0  0  0  0  0  0  0  0  0
    4.8941   -0.8980    2.5508 H   0  0  0  0  0  0  0  0  0  0  0  0
    1.9194   -1.4040    3.0914 H   0  0  0  0  0  0  0  0  0  0  0  0
    3.2326   -1.6270    4.2576 H   0  0  0  0  0  0  0  0  0  0  0  0
    2.8290   -0.0037    3.6688 H   0  0  0  0  0  0  0  0  0  0  0  0
   -0.3229   -2.9832   -1.1070 H   0  0  0  0  0  0  0  0  0  0  0  0
    0.0539   -1.2629   -1.4889 H   0  0  0  0  0  0  0  0  0  0  0  0
   -2.1622    2.8606    1.9407 H   0  0  0  0  0  0  0  0  0  0  0  0
   -1.0959    2.8941    0.5153 H   0  0  0  0  0  0  0  0  0  0  0  0
   -4.1572    3.0302    0.4331 H   0  0  0  0  0  0  0  0  0  0  0  0
   -3.0534    4.3884    0.1478 H   0  0  0  0  0  0  0  0  0  0  0  0
   -3.0879    3.0237   -0.9807 H   0  0  0  0  0  0  0  0  0  0  0  0
   -4.2052   -0.4795    0.6434 H   0  0  0  0  0  0  0  0  0  0  0  0
   -5.2729    0.1598   -0.6382 H   0  0  0  0  0  0  0  0  0  0  0  0
   -3.8859   -2.5729   -0.6473 H   0  0  0  0  0  0  0  0  0  0  0  0
   -5.6158   -2.2756   -0.4236 H   0  0  0  0  0  0  0  0  0  0  0  0
   -4.8487   -1.9191   -1.9804 H   0  0  0  0  0  0  0  0  0  0  0  0
  1  2  1  0  0  0  0
  2  3  1  0  0  0  0
  3  4  2  0  0  0  0
  4  5  2  0  0  0  0
  4  6  2  0  0  0  0
  6  7  1  0  0  0  0
  7  8  1  0  0  0  0
  4  9  1  0  0  0  0
  9 10  1  0  0  0  0
 10 11  1  0  0  0  0
 11 12  1  0  0  0  0
 12 13  2  0  0  0  0
 12 14  1  0  0  0  0
 14 15  1  0  0  0  0
 15 16  1  0  0  0  0
 12 17  2  0  0  0  0
 17 18  1  0  0  0  0
 18 19  1  0  0  0  0
  1 20  1  0  0  0  0
  1 21  1  0  0  0  0
  1 22  1  0  0  0  0
  2 23  1  0  0  0  0
  2 24  1  0  0  0  0
  7 25  1  0  0  0  0
  7 26  1  0  0  0  0
  8 27  1  0  0  0  0
  8 28  1  0  0  0  0
  8 29  1  0  0  0  0
 10 30  1  0  0  0  0
 10 31  1  0  0  0  0
 15 32  1  0  0  0  0
 15 33  1  0  0  0  0
 16 34  1  0  0  0  0
 16 35  1  0  0  0  0
 16 36  1  0  0  0  0
 18 37  1  0  0  0  0
 18 38  1  0  0  0  0
 19 39  1  0  0  0  0
 19 40  1  0  0  0  0
 19 41  1  0  0  0  0
M  END
