 xtb: 6.7.1 (edcfbbe)
          04092505213D

 41 40  0     0  0            999 V2000
    2.9630    2.0766    0.8451 C   0  0  0  0  0  0  0  0  0  0  0  0
    1.6296    1.6940    1.4525 C   0  0  0  0  0  0  0  0  0  0  0  0
    1.4683    0.2693    1.6218 O   0  0  0  0  0  0  0  0  0  0  0  0
    1.6950   -0.8545    0.5240 P   0  0  0  0  0  0  0  0  0  0  0  0
    0.8809   -2.5447    1.0723 S   0  0  0  0  0  0  0  0  0  0  0  0
    3.2767   -0.9658    0.2942 O   0  0  0  0  0  0  0  0  0  0  0  0
    4.0916   -1.9072    1.0099 C   0  0  0  0  0  0  0  0  0  0  0  0
    4.2731   -1.5068    2.4606 C   0  0  0  0  0  0  0  0  0  0  0  0
    1.2272   -0.0761   -1.3894 S   0  0  0  0  0  0  0  0  0  0  0  0
   -0.0659   -1.2442   -1.8894 C   0  0  0  0  0  0  0  0  0  0  0  0
   -1.6945   -0.4979   -2.2347 S   0  0  0  0  0  0  0  0  0  0  0  0
   -1.9936    0.6903   -0.5026 P   0  0  0  0  0  0  0  0  0  0  0  0
   -3.8466    1.2306   -0.1814 S   0  0  0  0  0  0  0  0  0  0  0  0
   -0.9455    1.8786   -0.6461 O   0  0  0  0  0  0  0  0  0  0  0  0
   -1.0537    2.8340   -1.7235 C   0  0  0  0  0  0  0  0  0  0  0  0
   -1.7313    4.1033   -1.2467 C   0  0  0  0  0  0  0  0  0  0  0  0
   -1.2560   -0.0777    0.6809 O   0  0  0  0  0  0  0  0  0  0  0  0
   -2.0335   -0.7616    1.6836 C   0  0  0  0  0  0  0  0  0  0  0  0
   -2.6907   -2.0127    1.1371 C   0  0  0  0  0  0  0  0  0  0  0  0
    3.0585    1.6568   -0.1557 H   0  0  0  0  0  0  0  0  0  0  0  0
    3.0232    3.1589    0.7817 H   0  0  0  0  0  0  0  0  0  0  0  0
    3.7813    1.7093    1.4591 H   0  0  0  0  0  0  0  0  0  0  0  0
    0.8010    2.0538    0.8383 H   0  0  0  0  0  0  0  0  0  0  0  0
    1.5242    2.0796    2.4684 H   0  0  0  0  0  0  0  0  0  0  0  0
    3.6269   -2.8962    0.9422 H   0  0  0  0  0  0  0  0  0  0  0  0
    5.0380   -1.9066    0.4675 H   0  0  0  0  0  0  0  0  0  0  0  0
    4.7315   -0.5239    2.5305 H   0  0  0  0  0  0  0  0  0  0  0  0
    3.3041   -1.4812    2.9590 H   0  0  0  0  0  0  0  0  0  0  0  0
    4.9070   -2.2336    2.9589 H   0  0  0  0  0  0  0  0  0  0  0  0
   -0.1687   -2.0037   -1.1101 H   0  0  0  0  0  0  0  0  0  0  0  0
    0.2292   -1.6937   -2.8344 H   0  0  0  0  0  0  0  0  0  0  0  0
   -0.0239    3.0190   -2.0368 H   0  0  0  0  0  0  0  0  0  0  0  0
   -1.6083    2.3813   -2.5524 H   0  0  0  0  0  0  0  0  0  0  0  0
   -2.7491    3.8881   -0.9281 H   0  0  0  0  0  0  0  0  0  0  0  0
   -1.1857    4.5289   -0.4094 H   0  0  0  0  0  0  0  0  0  0  0  0
   -1.7587    4.8200   -2.0609 H   0  0  0  0  0  0  0  0  0  0  0  0
   -1.3098   -0.9985    2.4650 H   0  0  0  0  0  0  0  0  0  0  0  0
   -2.7871   -0.0676    2.0668 H   0  0  0  0  0  0  0  0  0  0  0  0
   -1.9395   -2.7187    0.7909 H   0  0  0  0  0  0  0  0  0  0  0  0
   -3.2756   -2.4789    1.9232 H   0  0  0  0  0  0  0  0  0  0  0  0
   -3.3520   -1.7530    0.3104 H   0  0  0  0  0  0  0  0  0  0  0  0
  1  2  1  0  0  0  0
  2  3  1  0  0  0  0
  3  4  2  0  0  0  0
  4  5  2  0  0  0  0
  4  6  1  0  0  0  0
  6  7  1  0  0  0  0
  7  8  1  0  0  0  0
  4  9  1  0  0  0  0
  9 10  1  0  0  0  0
 10 11  1  0  0  0  0
 11 12  1  0  0  0  0
 12 13  2  0  0  0  0
 12 14  2  0  0  0  0
 14 15  1  0  0  0  0
 15 16  1  0  0  0  0
 12 17  1  0  0  0  0
 17 18  1  0  0  0  0
 18 19  1  0  0  0  0
  1 20  1  0  0  0  0
  1 21  1  0  0  0  0
  1 22  1  0  0  0  0
  2 23  1  0  0  0  0
  2 24  1  0  0  0  0
  7 25  1  0  0  0  0
  7 26  1  0  0  0  0
  8 27  1  0  0  0  0
  8 28  1  0  0  0  0
  8 29  1  0  0  0  0
 10 30  1  0  0  0  0
 10 31  1  0  0  0  0
 15 32  1  0  0  0  0
 15 33  1  0  0  0  0
 16 34  1  0  0  0  0
 16 35  1  0  0  0  0
 16 36  1  0  0  0  0
 18 37  1  0  0  0  0
 18 38  1  0  0  0  0
 19 39  1  0  0  0  0
 19 40  1  0  0  0  0
 19 41  1  0  0  0  0
M  END
