 xtb: 6.7.1 (edcfbbe)
          04092505203D

 41 40  0     0  0            999 V2000
    2.7421   -0.5451   -2.7150 C   0  0  0  0  0  0  0  0  0  0  0  0
    1.5341    0.1269   -2.0993 C   0  0  0  0  0  0  0  0  0  0  0  0
    1.0748   -0.5680   -0.9246 O   0  0  0  0  0  0  0  0  0  0  0  0
    1.9207   -0.5696    0.4231 P   0  0  0  0  0  0  0  0  0  0  0  0
    3.0355    1.0118    0.7650 S   0  0  0  0  0  0  0  0  0  0  0  0
    2.7336   -1.9274    0.2695 O   0  0  0  0  0  0  0  0  0  0  0  0
    3.8889   -2.2310    1.0712 C   0  0  0  0  0  0  0  0  0  0  0  0
    3.5274   -2.4842    2.5205 C   0  0  0  0  0  0  0  0  0  0  0  0
    0.4317   -1.0893    1.8118 S   0  0  0  0  0  0  0  0  0  0  0  0
   -0.3303    0.5451    2.0923 C   0  0  0  0  0  0  0  0  0  0  0  0
   -0.4442    1.6045    0.6257 S   0  0  0  0  0  0  0  0  0  0  0  0
   -1.9837    0.6752   -0.4829 P   0  0  0  0  0  0  0  0  0  0  0  0
   -2.0705    1.1528   -2.3811 S   0  0  0  0  0  0  0  0  0  0  0  0
   -3.3491    0.9513    0.3051 O   0  0  0  0  0  0  0  0  0  0  0  0
   -4.1757    2.0893    0.0207 C   0  0  0  0  0  0  0  0  0  0  0  0
   -3.5351    3.3812    0.4868 C   0  0  0  0  0  0  0  0  0  0  0  0
   -1.7354   -0.8341   -0.0884 O   0  0  0  0  0  0  0  0  0  0  0  0
   -2.4962   -1.9207   -0.6633 C   0  0  0  0  0  0  0  0  0  0  0  0
   -1.7747   -2.5014   -1.8626 C   0  0  0  0  0  0  0  0  0  0  0  0
    3.5910   -0.4715   -2.0359 H   0  0  0  0  0  0  0  0  0  0  0  0
    2.5317   -1.5939   -2.9065 H   0  0  0  0  0  0  0  0  0  0  0  0
    2.9904   -0.0480   -3.6474 H   0  0  0  0  0  0  0  0  0  0  0  0
    0.6736    0.1172   -2.7716 H   0  0  0  0  0  0  0  0  0  0  0  0
    1.7623    1.1624   -1.8221 H   0  0  0  0  0  0  0  0  0  0  0  0
    4.3093   -3.1195    0.5981 H   0  0  0  0  0  0  0  0  0  0  0  0
    4.5930   -1.3964    0.9917 H   0  0  0  0  0  0  0  0  0  0  0  0
    3.1707   -1.5639    2.9808 H   0  0  0  0  0  0  0  0  0  0  0  0
    2.7449   -3.2357    2.5894 H   0  0  0  0  0  0  0  0  0  0  0  0
    4.4074   -2.8274    3.0548 H   0  0  0  0  0  0  0  0  0  0  0  0
    0.2836    1.1076    2.7935 H   0  0  0  0  0  0  0  0  0  0  0  0
   -1.3219    0.3562    2.4961 H   0  0  0  0  0  0  0  0  0  0  0  0
   -4.3617    2.1213   -1.0578 H   0  0  0  0  0  0  0  0  0  0  0  0
   -5.1053    1.8829    0.5529 H   0  0  0  0  0  0  0  0  0  0  0  0
   -3.2934    3.3272    1.5451 H   0  0  0  0  0  0  0  0  0  0  0  0
   -2.6174    3.5623   -0.0731 H   0  0  0  0  0  0  0  0  0  0  0  0
   -4.2201    4.2051    0.3153 H   0  0  0  0  0  0  0  0  0  0  0  0
   -2.5729   -2.6491    0.1461 H   0  0  0  0  0  0  0  0  0  0  0  0
   -3.4921   -1.5602   -0.9334 H   0  0  0  0  0  0  0  0  0  0  0  0
   -0.7579   -2.7687   -1.5856 H   0  0  0  0  0  0  0  0  0  0  0  0
   -2.3009   -3.3864   -2.2060 H   0  0  0  0  0  0  0  0  0  0  0  0
   -1.7368   -1.7731   -2.6701 H   0  0  0  0  0  0  0  0  0  0  0  0
  1  2  1  0  0  0  0
  2  3  1  0  0  0  0
  3  4  1  0  0  0  0
  4  5  2  0  0  0  0
  4  6  2  0  0  0  0
  6  7  1  0  0  0  0
  7  8  1  0  0  0  0
  4  9  1  0  0  0  0
  9 10  1  0  0  0  0
 10 11  1  0  0  0  0
 11 12  1  0  0  0  0
 12 13  2  0  0  0  0
 12 14  1  0  0  0  0
 14 15  1  0  0  0  0
 15 16  1  0  0  0  0
 12 17  2  0  0  0  0
 17 18  1  0  0  0  0
 18 19  1  0  0  0  0
  1 20  1  0  0  0  0
  1 21  1  0  0  0  0
  1 22  1  0  0  0  0
  2 23  1  0  0  0  0
  2 24  1  0  0  0  0
  7 25  1  0  0  0  0
  7 26  1  0  0  0  0
  8 27  1  0  0  0  0
  8 28  1  0  0  0  0
  8 29  1  0  0  0  0
 10 30  1  0  0  0  0
 10 31  1  0  0  0  0
 15 32  1  0  0  0  0
 15 33  1  0  0  0  0
 16 34  1  0  0  0  0
 16 35  1  0  0  0  0
 16 36  1  0  0  0  0
 18 37  1  0  0  0  0
 18 38  1  0  0  0  0
 19 39  1  0  0  0  0
 19 40  1  0  0  0  0
 19 41  1  0  0  0  0
M  END
