 xtb: 6.7.1 (edcfbbe)
          04092505203D

 41 40  0     0  0            999 V2000
    4.0964   -1.6602   -2.2899 C   0  0  0  0  0  0  0  0  0  0  0  0
    4.3480   -1.6728   -0.7961 C   0  0  0  0  0  0  0  0  0  0  0  0
    3.1254   -1.5930   -0.0428 O   0  0  0  0  0  0  0  0  0  0  0  0
    2.2237   -0.2828   -0.0130 P   0  0  0  0  0  0  0  0  0  0  0  0
    3.2360    1.3985    0.0551 S   0  0  0  0  0  0  0  0  0  0  0  0
    1.2846   -0.5919    1.2240 O   0  0  0  0  0  0  0  0  0  0  0  0
    1.6431   -0.2403    2.5814 C   0  0  0  0  0  0  0  0  0  0  0  0
    0.3865    0.1875    3.3112 C   0  0  0  0  0  0  0  0  0  0  0  0
    0.8388   -0.5381   -1.5832 S   0  0  0  0  0  0  0  0  0  0  0  0
    0.2812    1.1882   -1.6443 C   0  0  0  0  0  0  0  0  0  0  0  0
   -0.5572    1.7192   -0.1373 S   0  0  0  0  0  0  0  0  0  0  0  0
   -2.2920    0.4763   -0.3396 P   0  0  0  0  0  0  0  0  0  0  0  0
   -2.7997   -0.0033   -2.1632 S   0  0  0  0  0  0  0  0  0  0  0  0
   -3.4069    1.3171    0.3838 O   0  0  0  0  0  0  0  0  0  0  0  0
   -3.2676    2.0122    1.6469 C   0  0  0  0  0  0  0  0  0  0  0  0
   -3.4943    1.0855    2.8228 C   0  0  0  0  0  0  0  0  0  0  0  0
   -2.0547   -0.7553    0.6439 O   0  0  0  0  0  0  0  0  0  0  0  0
   -1.6567   -2.0730    0.2323 C   0  0  0  0  0  0  0  0  0  0  0  0
   -2.6343   -3.0791    0.8075 C   0  0  0  0  0  0  0  0  0  0  0  0
    3.7014   -0.6913   -2.5931 H   0  0  0  0  0  0  0  0  0  0  0  0
    5.0299   -1.8385   -2.8139 H   0  0  0  0  0  0  0  0  0  0  0  0
    3.3773   -2.4298   -2.5592 H   0  0  0  0  0  0  0  0  0  0  0  0
    4.9869   -0.8325   -0.5059 H   0  0  0  0  0  0  0  0  0  0  0  0
    4.7965   -2.6119   -0.4697 H   0  0  0  0  0  0  0  0  0  0  0  0
    2.0942   -1.1243    3.0373 H   0  0  0  0  0  0  0  0  0  0  0  0
    2.3802    0.5693    2.5517 H   0  0  0  0  0  0  0  0  0  0  0  0
   -0.3480   -0.6126    3.2837 H   0  0  0  0  0  0  0  0  0  0  0  0
    0.6329    0.4153    4.3430 H   0  0  0  0  0  0  0  0  0  0  0  0
   -0.0342    1.0718    2.8389 H   0  0  0  0  0  0  0  0  0  0  0  0
   -0.4015    1.2586   -2.4908 H   0  0  0  0  0  0  0  0  0  0  0  0
    1.1413    1.8461   -1.7648 H   0  0  0  0  0  0  0  0  0  0  0  0
   -2.2760    2.4718    1.6846 H   0  0  0  0  0  0  0  0  0  0  0  0
   -4.0300    2.7916    1.5983 H   0  0  0  0  0  0  0  0  0  0  0  0
   -2.7342    0.3099    2.8437 H   0  0  0  0  0  0  0  0  0  0  0  0
   -3.4436    1.6610    3.7417 H   0  0  0  0  0  0  0  0  0  0  0  0
   -4.4720    0.6181    2.7448 H   0  0  0  0  0  0  0  0  0  0  0  0
   -1.6462   -2.1210   -0.8619 H   0  0  0  0  0  0  0  0  0  0  0  0
   -0.6433   -2.2335    0.6093 H   0  0  0  0  0  0  0  0  0  0  0  0
   -3.6291   -2.8981    0.4083 H   0  0  0  0  0  0  0  0  0  0  0  0
   -2.3165   -4.0796    0.5323 H   0  0  0  0  0  0  0  0  0  0  0  0
   -2.6678   -2.9964    1.8900 H   0  0  0  0  0  0  0  0  0  0  0  0
  1  2  1  0  0  0  0
  2  3  1  0  0  0  0
  3  4  2  0  0  0  0
  4  5  2  0  0  0  0
  4  6  2  0  0  0  0
  6  7  1  0  0  0  0
  7  8  1  0  0  0  0
  4  9  1  0  0  0  0
  9 10  1  0  0  0  0
 10 11  1  0  0  0  0
 11 12  1  0  0  0  0
 12 13  2  0  0  0  0
 12 14  2  0  0  0  0
 14 15  1  0  0  0  0
 15 16  1  0  0  0  0
 12 17  2  0  0  0  0
 17 18  1  0  0  0  0
 18 19  1  0  0  0  0
  1 20  1  0  0  0  0
  1 21  1  0  0  0  0
  1 22  1  0  0  0  0
  2 23  1  0  0  0  0
  2 24  1  0  0  0  0
  7 25  1  0  0  0  0
  7 26  1  0  0  0  0
  8 27  1  0  0  0  0
  8 28  1  0  0  0  0
  8 29  1  0  0  0  0
 10 30  1  0  0  0  0
 10 31  1  0  0  0  0
 15 32  1  0  0  0  0
 15 33  1  0  0  0  0
 16 34  1  0  0  0  0
 16 35  1  0  0  0  0
 16 36  1  0  0  0  0
 18 37  1  0  0  0  0
 18 38  1  0  0  0  0
 19 39  1  0  0  0  0
 19 40  1  0  0  0  0
 19 41  1  0  0  0  0
M  END
