 xtb: 6.7.1 (edcfbbe)
          04032520393D

 22 22  0     0  0            999 V2000
    2.8323    0.0000   -0.0353 C   0  0  0  0  0  0  0  0  0  0  0  0
    1.3932   -0.0002   -0.2812 N   0  0  0  0  0  0  0  0  0  0  0  0
    0.7275    1.1842    0.2294 C   0  0  0  0  0  0  0  0  0  0  0  0
   -0.7338    1.1831   -0.2058 C   0  0  0  0  0  0  0  0  0  0  0  0
   -1.4029   -0.0002    0.3047 N   0  0  0  0  0  0  0  0  0  0  0  0
   -0.7336   -1.1831   -0.2064 C   0  0  0  0  0  0  0  0  0  0  0  0
    0.7273   -1.1841    0.2300 C   0  0  0  0  0  0  0  0  0  0  0  0
   -2.8125    0.0001   -0.0261 C   0  0  0  0  0  0  0  0  0  0  0  0
    3.1388    0.8809    0.5303 H   0  0  0  0  0  0  0  0  0  0  0  0
    3.3586    0.0017   -0.9915 H   0  0  0  0  0  0  0  0  0  0  0  0
    3.1393   -0.8824    0.5276 H   0  0  0  0  0  0  0  0  0  0  0  0
    0.7697    1.2290    1.3328 H   0  0  0  0  0  0  0  0  0  0  0  0
    1.2235    2.0666   -0.1796 H   0  0  0  0  0  0  0  0  0  0  0  0
   -1.2343    2.0667    0.1961 H   0  0  0  0  0  0  0  0  0  0  0  0
   -0.7788    1.2224   -1.3092 H   0  0  0  0  0  0  0  0  0  0  0  0
   -1.2344   -2.0671    0.1944 H   0  0  0  0  0  0  0  0  0  0  0  0
   -0.7777   -1.2215   -1.3098 H   0  0  0  0  0  0  0  0  0  0  0  0
    0.7683   -1.2278    1.3335 H   0  0  0  0  0  0  0  0  0  0  0  0
    1.2237   -2.0669   -0.1776 H   0  0  0  0  0  0  0  0  0  0  0  0
   -3.2771   -0.8858    0.4031 H   0  0  0  0  0  0  0  0  0  0  0  0
   -2.9915    0.0013   -1.1131 H   0  0  0  0  0  0  0  0  0  0  0  0
   -3.2769    0.8850    0.4052 H   0  0  0  0  0  0  0  0  0  0  0  0
  1  2  1  0  0  0  0
  2  3  1  0  0  0  0
  3  4  1  0  0  0  0
  4  5  1  0  0  0  0
  5  6  1  0  0  0  0
  2  7  1  0  0  0  0
  6  7  1  0  0  0  0
  5  8  1  0  0  0  0
  1  9  1  0  0  0  0
  1 10  1  0  0  0  0
  1 11  1  0  0  0  0
  3 12  1  0  0  0  0
  3 13  1  0  0  0  0
  4 14  1  0  0  0  0
  4 15  1  0  0  0  0
  6 16  1  0  0  0  0
  6 17  1  0  0  0  0
  7 18  1  0  0  0  0
  7 19  1  0  0  0  0
  8 20  1  0  0  0  0
  8 21  1  0  0  0  0
  8 22  1  0  0  0  0
M  END
