 xtb: 6.7.1 (edcfbbe)
          04092505203D

 41 40  0     0  0            999 V2000
    3.2341   -1.1401   -2.4145 C   0  0  0  0  0  0  0  0  0  0  0  0
    3.3326    0.3547   -2.1992 C   0  0  0  0  0  0  0  0  0  0  0  0
    2.2991    0.8559   -1.3184 O   0  0  0  0  0  0  0  0  0  0  0  0
    2.0942    0.4546    0.1885 P   0  0  0  0  0  0  0  0  0  0  0  0
    1.0566    1.7775    1.1904 S   0  0  0  0  0  0  0  0  0  0  0  0
    3.6110    0.3166    0.6689 O   0  0  0  0  0  0  0  0  0  0  0  0
    4.0142    0.3904    2.0465 C   0  0  0  0  0  0  0  0  0  0  0  0
    3.4995   -0.7735    2.8688 C   0  0  0  0  0  0  0  0  0  0  0  0
    1.3320   -1.5381    0.2526 S   0  0  0  0  0  0  0  0  0  0  0  0
   -0.0448   -1.3281    1.4188 C   0  0  0  0  0  0  0  0  0  0  0  0
   -1.6776   -1.6889    0.7148 S   0  0  0  0  0  0  0  0  0  0  0  0
   -1.9783    0.0293   -0.5010 P   0  0  0  0  0  0  0  0  0  0  0  0
   -0.7041    0.3497   -1.9507 S   0  0  0  0  0  0  0  0  0  0  0  0
   -2.1241    1.2596    0.4647 O   0  0  0  0  0  0  0  0  0  0  0  0
   -3.0805    1.3024    1.5583 C   0  0  0  0  0  0  0  0  0  0  0  0
   -2.5472    2.2571    2.6054 C   0  0  0  0  0  0  0  0  0  0  0  0
   -3.4750   -0.2031   -0.9828 O   0  0  0  0  0  0  0  0  0  0  0  0
   -3.8041   -1.2015   -1.9712 C   0  0  0  0  0  0  0  0  0  0  0  0
   -5.1822   -0.8817   -2.5133 C   0  0  0  0  0  0  0  0  0  0  0  0
    3.4453   -1.6719   -1.4877 H   0  0  0  0  0  0  0  0  0  0  0  0
    2.2335   -1.4027   -2.7512 H   0  0  0  0  0  0  0  0  0  0  0  0
    3.9561   -1.4394   -3.1678 H   0  0  0  0  0  0  0  0  0  0  0  0
    3.1521    0.9051   -3.1240 H   0  0  0  0  0  0  0  0  0  0  0  0
    4.3018    0.6309   -1.7786 H   0  0  0  0  0  0  0  0  0  0  0  0
    5.1040    0.3947    1.9943 H   0  0  0  0  0  0  0  0  0  0  0  0
    3.6575    1.3396    2.4585 H   0  0  0  0  0  0  0  0  0  0  0  0
    3.9583   -0.7436    3.8518 H   0  0  0  0  0  0  0  0  0  0  0  0
    2.4195   -0.6985    2.9825 H   0  0  0  0  0  0  0  0  0  0  0  0
    3.7414   -1.7166    2.3855 H   0  0  0  0  0  0  0  0  0  0  0  0
   -0.0281   -0.2982    1.7884 H   0  0  0  0  0  0  0  0  0  0  0  0
    0.0818   -2.0487    2.2225 H   0  0  0  0  0  0  0  0  0  0  0  0
   -4.0303    1.6449    1.1446 H   0  0  0  0  0  0  0  0  0  0  0  0
   -3.2025    0.2912    1.9573 H   0  0  0  0  0  0  0  0  0  0  0  0
   -3.2340    2.2865    3.4448 H   0  0  0  0  0  0  0  0  0  0  0  0
   -1.5671    1.9345    2.9479 H   0  0  0  0  0  0  0  0  0  0  0  0
   -2.4440    3.2530    2.1844 H   0  0  0  0  0  0  0  0  0  0  0  0
   -3.0436   -1.1743   -2.7585 H   0  0  0  0  0  0  0  0  0  0  0  0
   -3.7821   -2.1796   -1.4836 H   0  0  0  0  0  0  0  0  0  0  0  0
   -5.9077   -0.8828   -1.7051 H   0  0  0  0  0  0  0  0  0  0  0  0
   -5.1799    0.0974   -2.9842 H   0  0  0  0  0  0  0  0  0  0  0  0
   -5.4581   -1.6319   -3.2469 H   0  0  0  0  0  0  0  0  0  0  0  0
  1  2  1  0  0  0  0
  2  3  1  0  0  0  0
  3  4  2  0  0  0  0
  4  5  2  0  0  0  0
  4  6  2  0  0  0  0
  6  7  1  0  0  0  0
  7  8  1  0  0  0  0
  4  9  1  0  0  0  0
  9 10  1  0  0  0  0
 10 11  1  0  0  0  0
 11 12  1  0  0  0  0
 12 13  2  0  0  0  0
 12 14  2  0  0  0  0
 14 15  1  0  0  0  0
 15 16  1  0  0  0  0
 12 17  2  0  0  0  0
 17 18  1  0  0  0  0
 18 19  1  0  0  0  0
  1 20  1  0  0  0  0
  1 21  1  0  0  0  0
  1 22  1  0  0  0  0
  2 23  1  0  0  0  0
  2 24  1  0  0  0  0
  7 25  1  0  0  0  0
  7 26  1  0  0  0  0
  8 27  1  0  0  0  0
  8 28  1  0  0  0  0
  8 29  1  0  0  0  0
 10 30  1  0  0  0  0
 10 31  1  0  0  0  0
 15 32  1  0  0  0  0
 15 33  1  0  0  0  0
 16 34  1  0  0  0  0
 16 35  1  0  0  0  0
 16 36  1  0  0  0  0
 18 37  1  0  0  0  0
 18 38  1  0  0  0  0
 19 39  1  0  0  0  0
 19 40  1  0  0  0  0
 19 41  1  0  0  0  0
M  END
