 xtb: 6.7.1 (edcfbbe)
          04092505213D

 41 40  0     0  0            999 V2000
    4.4497    0.6036   -2.1218 C   0  0  0  0  0  0  0  0  0  0  0  0
    4.6576    0.2397   -0.6654 C   0  0  0  0  0  0  0  0  0  0  0  0
    3.5124   -0.4262   -0.1133 O   0  0  0  0  0  0  0  0  0  0  0  0
    2.1367    0.3416    0.1664 P   0  0  0  0  0  0  0  0  0  0  0  0
    2.3854    2.1768    0.8041 S   0  0  0  0  0  0  0  0  0  0  0  0
    1.4223   -0.7027    1.1120 O   0  0  0  0  0  0  0  0  0  0  0  0
    1.8033   -0.8820    2.4953 C   0  0  0  0  0  0  0  0  0  0  0  0
    0.9378   -0.0305    3.4018 C   0  0  0  0  0  0  0  0  0  0  0  0
    0.9595    0.1280   -1.5770 S   0  0  0  0  0  0  0  0  0  0  0  0
    0.5021   -1.6243   -1.5236 C   0  0  0  0  0  0  0  0  0  0  0  0
   -0.7326   -2.0586   -0.2511 S   0  0  0  0  0  0  0  0  0  0  0  0
   -1.9381   -0.3365   -0.3039 P   0  0  0  0  0  0  0  0  0  0  0  0
   -2.5174    0.3260   -2.0608 S   0  0  0  0  0  0  0  0  0  0  0  0
   -1.1339    0.6726    0.6205 O   0  0  0  0  0  0  0  0  0  0  0  0
   -1.3382    2.0964    0.5255 C   0  0  0  0  0  0  0  0  0  0  0  0
   -2.6962    2.5005    1.0558 C   0  0  0  0  0  0  0  0  0  0  0  0
   -3.1254   -0.7548    0.6649 O   0  0  0  0  0  0  0  0  0  0  0  0
   -4.2168   -1.5846    0.2167 C   0  0  0  0  0  0  0  0  0  0  0  0
   -5.3861   -1.3686    1.1561 C   0  0  0  0  0  0  0  0  0  0  0  0
    3.6417    1.3301   -2.2100 H   0  0  0  0  0  0  0  0  0  0  0  0
    5.3608    1.0410   -2.5172 H   0  0  0  0  0  0  0  0  0  0  0  0
    4.1913   -0.2780   -2.7025 H   0  0  0  0  0  0  0  0  0  0  0  0
    4.8559    1.1376   -0.0710 H   0  0  0  0  0  0  0  0  0  0  0  0
    5.4695   -0.4776   -0.5387 H   0  0  0  0  0  0  0  0  0  0  0  0
    1.6454   -1.9464    2.6790 H   0  0  0  0  0  0  0  0  0  0  0  0
    2.8627   -0.6388    2.6117 H   0  0  0  0  0  0  0  0  0  0  0  0
   -0.1121   -0.2295    3.2008 H   0  0  0  0  0  0  0  0  0  0  0  0
    1.1595   -0.2671    4.4375 H   0  0  0  0  0  0  0  0  0  0  0  0
    1.1327    1.0256    3.2274 H   0  0  0  0  0  0  0  0  0  0  0  0
    1.3788   -2.2352   -1.3228 H   0  0  0  0  0  0  0  0  0  0  0  0
    0.0864   -1.8348   -2.5074 H   0  0  0  0  0  0  0  0  0  0  0  0
   -0.5232    2.5246    1.1126 H   0  0  0  0  0  0  0  0  0  0  0  0
   -1.2229    2.3945   -0.5227 H   0  0  0  0  0  0  0  0  0  0  0  0
   -3.4763    2.0811    0.4213 H   0  0  0  0  0  0  0  0  0  0  0  0
   -2.8279    2.1328    2.0699 H   0  0  0  0  0  0  0  0  0  0  0  0
   -2.7759    3.5829    1.0476 H   0  0  0  0  0  0  0  0  0  0  0  0
   -4.4688   -1.3029   -0.8114 H   0  0  0  0  0  0  0  0  0  0  0  0
   -3.8797   -2.6244    0.2307 H   0  0  0  0  0  0  0  0  0  0  0  0
   -5.7122   -0.3330    1.1187 H   0  0  0  0  0  0  0  0  0  0  0  0
   -6.2061   -2.0127    0.8561 H   0  0  0  0  0  0  0  0  0  0  0  0
   -5.0922   -1.6087    2.1737 H   0  0  0  0  0  0  0  0  0  0  0  0
  1  2  1  0  0  0  0
  2  3  1  0  0  0  0
  3  4  1  0  0  0  0
  4  5  2  0  0  0  0
  4  6  2  0  0  0  0
  6  7  1  0  0  0  0
  7  8  1  0  0  0  0
  4  9  1  0  0  0  0
  9 10  1  0  0  0  0
 10 11  1  0  0  0  0
 11 12  1  0  0  0  0
 12 13  2  0  0  0  0
 12 14  2  0  0  0  0
 14 15  1  0  0  0  0
 15 16  1  0  0  0  0
 12 17  2  0  0  0  0
 17 18  1  0  0  0  0
 18 19  1  0  0  0  0
  1 20  1  0  0  0  0
  1 21  1  0  0  0  0
  1 22  1  0  0  0  0
  2 23  1  0  0  0  0
  2 24  1  0  0  0  0
  7 25  1  0  0  0  0
  7 26  1  0  0  0  0
  8 27  1  0  0  0  0
  8 28  1  0  0  0  0
  8 29  1  0  0  0  0
 10 30  1  0  0  0  0
 10 31  1  0  0  0  0
 15 32  1  0  0  0  0
 15 33  1  0  0  0  0
 16 34  1  0  0  0  0
 16 35  1  0  0  0  0
 16 36  1  0  0  0  0
 18 37  1  0  0  0  0
 18 38  1  0  0  0  0
 19 39  1  0  0  0  0
 19 40  1  0  0  0  0
 19 41  1  0  0  0  0
M  END
