 xtb: 6.7.1 (edcfbbe)
          04092505213D

 41 40  0     0  0            999 V2000
    4.9257   -0.8166   -1.1651 C   0  0  0  0  0  0  0  0  0  0  0  0
    3.9274   -1.8386   -0.6636 C   0  0  0  0  0  0  0  0  0  0  0  0
    3.0080   -1.2708    0.2906 O   0  0  0  0  0  0  0  0  0  0  0  0
    1.9176   -0.1880   -0.1081 P   0  0  0  0  0  0  0  0  0  0  0  0
    1.2094   -0.4247   -1.9222 S   0  0  0  0  0  0  0  0  0  0  0  0
    2.6519    1.1865    0.1791 O   0  0  0  0  0  0  0  0  0  0  0  0
    2.4143    2.4306   -0.5019 C   0  0  0  0  0  0  0  0  0  0  0  0
    3.7455    3.1197   -0.7234 C   0  0  0  0  0  0  0  0  0  0  0  0
    0.7356   -0.4431    1.6284 S   0  0  0  0  0  0  0  0  0  0  0  0
   -0.1640   -1.9263    1.1093 C   0  0  0  0  0  0  0  0  0  0  0  0
   -1.4888   -1.6240   -0.1151 S   0  0  0  0  0  0  0  0  0  0  0  0
   -2.0433    0.3938    0.3033 P   0  0  0  0  0  0  0  0  0  0  0  0
   -0.8782    1.8893   -0.2040 S   0  0  0  0  0  0  0  0  0  0  0  0
   -2.3987    0.4637    1.8365 O   0  0  0  0  0  0  0  0  0  0  0  0
   -3.5666   -0.1235    2.4688 C   0  0  0  0  0  0  0  0  0  0  0  0
   -3.2909   -1.5267    2.9705 C   0  0  0  0  0  0  0  0  0  0  0  0
   -3.4693    0.4542   -0.3971 O   0  0  0  0  0  0  0  0  0  0  0  0
   -3.6396    0.8305   -1.7756 C   0  0  0  0  0  0  0  0  0  0  0  0
   -3.0154   -0.1710   -2.7252 C   0  0  0  0  0  0  0  0  0  0  0  0
    4.4104   -0.0628   -1.7594 H   0  0  0  0  0  0  0  0  0  0  0  0
    5.4190   -0.3304   -0.3274 H   0  0  0  0  0  0  0  0  0  0  0  0
    5.6661   -1.3097   -1.7871 H   0  0  0  0  0  0  0  0  0  0  0  0
    4.4130   -2.6426   -0.1091 H   0  0  0  0  0  0  0  0  0  0  0  0
    3.3497   -2.2510   -1.4970 H   0  0  0  0  0  0  0  0  0  0  0  0
    1.9001    2.2260   -1.4473 H   0  0  0  0  0  0  0  0  0  0  0  0
    1.7509    3.0304    0.1263 H   0  0  0  0  0  0  0  0  0  0  0  0
    4.3735    2.5304   -1.3860 H   0  0  0  0  0  0  0  0  0  0  0  0
    3.5662    4.0917   -1.1709 H   0  0  0  0  0  0  0  0  0  0  0  0
    4.2556    3.2485    0.2269 H   0  0  0  0  0  0  0  0  0  0  0  0
   -0.6058   -2.3438    2.0109 H   0  0  0  0  0  0  0  0  0  0  0  0
    0.5228   -2.6343    0.6481 H   0  0  0  0  0  0  0  0  0  0  0  0
   -3.7726    0.5578    3.2959 H   0  0  0  0  0  0  0  0  0  0  0  0
   -4.3954   -0.1078    1.7598 H   0  0  0  0  0  0  0  0  0  0  0  0
   -4.1415   -1.8589    3.5577 H   0  0  0  0  0  0  0  0  0  0  0  0
   -3.1499   -2.2127    2.1389 H   0  0  0  0  0  0  0  0  0  0  0  0
   -2.4043   -1.5282    3.5997 H   0  0  0  0  0  0  0  0  0  0  0  0
   -4.7224    0.8817   -1.8971 H   0  0  0  0  0  0  0  0  0  0  0  0
   -3.1990    1.8222   -1.9190 H   0  0  0  0  0  0  0  0  0  0  0  0
   -3.3747   -1.1745   -2.5109 H   0  0  0  0  0  0  0  0  0  0  0  0
   -3.2696    0.0947   -3.7462 H   0  0  0  0  0  0  0  0  0  0  0  0
   -1.9296   -0.1596   -2.6239 H   0  0  0  0  0  0  0  0  0  0  0  0
  1  2  1  0  0  0  0
  2  3  1  0  0  0  0
  3  4  2  0  0  0  0
  4  5  2  0  0  0  0
  4  6  2  0  0  0  0
  6  7  1  0  0  0  0
  7  8  1  0  0  0  0
  4  9  1  0  0  0  0
  9 10  1  0  0  0  0
 10 11  1  0  0  0  0
 11 12  1  0  0  0  0
 12 13  2  0  0  0  0
 12 14  2  0  0  0  0
 14 15  1  0  0  0  0
 15 16  1  0  0  0  0
 12 17  2  0  0  0  0
 17 18  1  0  0  0  0
 18 19  1  0  0  0  0
  1 20  1  0  0  0  0
  1 21  1  0  0  0  0
  1 22  1  0  0  0  0
  2 23  1  0  0  0  0
  2 24  1  0  0  0  0
  7 25  1  0  0  0  0
  7 26  1  0  0  0  0
  8 27  1  0  0  0  0
  8 28  1  0  0  0  0
  8 29  1  0  0  0  0
 10 30  1  0  0  0  0
 10 31  1  0  0  0  0
 15 32  1  0  0  0  0
 15 33  1  0  0  0  0
 16 34  1  0  0  0  0
 16 35  1  0  0  0  0
 16 36  1  0  0  0  0
 18 37  1  0  0  0  0
 18 38  1  0  0  0  0
 19 39  1  0  0  0  0
 19 40  1  0  0  0  0
 19 41  1  0  0  0  0
M  END
