 xtb: 6.7.1 (edcfbbe)
          04092505203D

 41 40  0     0  0            999 V2000
    3.3395    0.3520   -2.7181 C   0  0  0  0  0  0  0  0  0  0  0  0
    1.9388    0.6964   -2.2594 C   0  0  0  0  0  0  0  0  0  0  0  0
    1.4069   -0.2830   -1.3476 O   0  0  0  0  0  0  0  0  0  0  0  0
    2.0191   -0.5285    0.0929 P   0  0  0  0  0  0  0  0  0  0  0  0
    2.7148    1.0260    1.0719 S   0  0  0  0  0  0  0  0  0  0  0  0
    3.1117   -1.6393   -0.2320 O   0  0  0  0  0  0  0  0  0  0  0  0
    4.1706   -1.9767    0.6801 C   0  0  0  0  0  0  0  0  0  0  0  0
    3.6585   -2.6690    1.9268 C   0  0  0  0  0  0  0  0  0  0  0  0
    0.4772   -1.6391    0.9884 S   0  0  0  0  0  0  0  0  0  0  0  0
   -0.2842   -0.3648    2.0544 C   0  0  0  0  0  0  0  0  0  0  0  0
   -2.0313   -0.1100    1.6912 S   0  0  0  0  0  0  0  0  0  0  0  0
   -1.8040    0.7646   -0.2351 P   0  0  0  0  0  0  0  0  0  0  0  0
   -0.4769    2.2074   -0.2721 S   0  0  0  0  0  0  0  0  0  0  0  0
   -3.2856    1.1899   -0.6073 O   0  0  0  0  0  0  0  0  0  0  0  0
   -3.9466    2.2688    0.0873 C   0  0  0  0  0  0  0  0  0  0  0  0
   -5.1810    2.6432   -0.7070 C   0  0  0  0  0  0  0  0  0  0  0  0
   -1.4898   -0.3501   -1.2988 O   0  0  0  0  0  0  0  0  0  0  0  0
   -2.4303   -1.3153   -1.8388 C   0  0  0  0  0  0  0  0  0  0  0  0
   -2.9723   -2.2598   -0.7871 C   0  0  0  0  0  0  0  0  0  0  0  0
    4.0318    0.4218   -1.8798 H   0  0  0  0  0  0  0  0  0  0  0  0
    3.3657   -0.6593   -3.1156 H   0  0  0  0  0  0  0  0  0  0  0  0
    3.6455    1.0546   -3.4869 H   0  0  0  0  0  0  0  0  0  0  0  0
    1.2246    0.6939   -3.0846 H   0  0  0  0  0  0  0  0  0  0  0  0
    1.9158    1.6746   -1.7665 H   0  0  0  0  0  0  0  0  0  0  0  0
    4.8204   -2.6287    0.0947 H   0  0  0  0  0  0  0  0  0  0  0  0
    4.7030   -1.0574    0.9447 H   0  0  0  0  0  0  0  0  0  0  0  0
    3.0286   -3.5135    1.6593 H   0  0  0  0  0  0  0  0  0  0  0  0
    4.5020   -3.0176    2.5140 H   0  0  0  0  0  0  0  0  0  0  0  0
    3.0763   -1.9707    2.5264 H   0  0  0  0  0  0  0  0  0  0  0  0
    0.2660    0.5720    1.9287 H   0  0  0  0  0  0  0  0  0  0  0  0
   -0.2384   -0.7127    3.0830 H   0  0  0  0  0  0  0  0  0  0  0  0
   -4.2048    1.9195    1.0903 H   0  0  0  0  0  0  0  0  0  0  0  0
   -3.2485    3.1082    0.1694 H   0  0  0  0  0  0  0  0  0  0  0  0
   -5.6983    3.4500   -0.1984 H   0  0  0  0  0  0  0  0  0  0  0  0
   -4.8992    2.9711   -1.7037 H   0  0  0  0  0  0  0  0  0  0  0  0
   -5.8438    1.7871   -0.7902 H   0  0  0  0  0  0  0  0  0  0  0  0
   -3.2349   -0.7645   -2.3284 H   0  0  0  0  0  0  0  0  0  0  0  0
   -1.8317   -1.8454   -2.5814 H   0  0  0  0  0  0  0  0  0  0  0  0
   -2.1561   -2.7239   -0.2374 H   0  0  0  0  0  0  0  0  0  0  0  0
   -3.6118   -1.7273   -0.0865 H   0  0  0  0  0  0  0  0  0  0  0  0
   -3.5547   -3.0327   -1.2791 H   0  0  0  0  0  0  0  0  0  0  0  0
  1  2  1  0  0  0  0
  2  3  1  0  0  0  0
  3  4  2  0  0  0  0
  4  5  2  0  0  0  0
  4  6  2  0  0  0  0
  6  7  1  0  0  0  0
  7  8  1  0  0  0  0
  4  9  1  0  0  0  0
  9 10  1  0  0  0  0
 10 11  1  0  0  0  0
 11 12  1  0  0  0  0
 12 13  2  0  0  0  0
 12 14  2  0  0  0  0
 14 15  1  0  0  0  0
 15 16  1  0  0  0  0
 12 17  2  0  0  0  0
 17 18  1  0  0  0  0
 18 19  1  0  0  0  0
  1 20  1  0  0  0  0
  1 21  1  0  0  0  0
  1 22  1  0  0  0  0
  2 23  1  0  0  0  0
  2 24  1  0  0  0  0
  7 25  1  0  0  0  0
  7 26  1  0  0  0  0
  8 27  1  0  0  0  0
  8 28  1  0  0  0  0
  8 29  1  0  0  0  0
 10 30  1  0  0  0  0
 10 31  1  0  0  0  0
 15 32  1  0  0  0  0
 15 33  1  0  0  0  0
 16 34  1  0  0  0  0
 16 35  1  0  0  0  0
 16 36  1  0  0  0  0
 18 37  1  0  0  0  0
 18 38  1  0  0  0  0
 19 39  1  0  0  0  0
 19 40  1  0  0  0  0
 19 41  1  0  0  0  0
M  END
