 xtb: 6.7.1 (edcfbbe)
          04092505203D

 41 40  0     0  0            999 V2000
    4.3917   -1.4054    1.3836 C   0  0  0  0  0  0  0  0  0  0  0  0
    3.9465    0.0322    1.2041 C   0  0  0  0  0  0  0  0  0  0  0  0
    3.5105    0.2743   -0.1575 O   0  0  0  0  0  0  0  0  0  0  0  0
    1.9841    0.3318   -0.5899 P   0  0  0  0  0  0  0  0  0  0  0  0
    1.8184    0.8692   -2.4602 S   0  0  0  0  0  0  0  0  0  0  0  0
    1.2490    1.2501    0.4956 O   0  0  0  0  0  0  0  0  0  0  0  0
    1.1290    2.6713    0.3242 C   0  0  0  0  0  0  0  0  0  0  0  0
    2.4553    3.3765    0.5185 C   0  0  0  0  0  0  0  0  0  0  0  0
    1.2434   -1.5649   -0.0626 S   0  0  0  0  0  0  0  0  0  0  0  0
   -0.1188   -1.7463   -1.2596 C   0  0  0  0  0  0  0  0  0  0  0  0
   -1.7053   -2.0507   -0.4615 S   0  0  0  0  0  0  0  0  0  0  0  0
   -2.0687   -0.0552    0.1851 P   0  0  0  0  0  0  0  0  0  0  0  0
   -1.6639    1.3410   -1.1279 S   0  0  0  0  0  0  0  0  0  0  0  0
   -1.2375    0.1760    1.5023 O   0  0  0  0  0  0  0  0  0  0  0  0
   -1.3619   -0.6773    2.6727 C   0  0  0  0  0  0  0  0  0  0  0  0
   -0.0327   -0.6818    3.3985 C   0  0  0  0  0  0  0  0  0  0  0  0
   -3.5467   -0.1348    0.7617 O   0  0  0  0  0  0  0  0  0  0  0  0
   -4.6791   -0.7116    0.0839 C   0  0  0  0  0  0  0  0  0  0  0  0
   -4.9050   -0.1198   -1.2912 C   0  0  0  0  0  0  0  0  0  0  0  0
    3.5536   -2.0869    1.2574 H   0  0  0  0  0  0  0  0  0  0  0  0
    5.1549   -1.6506    0.6504 H   0  0  0  0  0  0  0  0  0  0  0  0
    4.8016   -1.5246    2.3817 H   0  0  0  0  0  0  0  0  0  0  0  0
    4.7807    0.7217    1.3469 H   0  0  0  0  0  0  0  0  0  0  0  0
    3.1340    0.2865    1.8896 H   0  0  0  0  0  0  0  0  0  0  0  0
    0.7244    2.8691   -0.6742 H   0  0  0  0  0  0  0  0  0  0  0  0
    0.3902    2.9657    1.0718 H   0  0  0  0  0  0  0  0  0  0  0  0
    3.1597    3.0517   -0.2471 H   0  0  0  0  0  0  0  0  0  0  0  0
    2.3048    4.4475    0.4254 H   0  0  0  0  0  0  0  0  0  0  0  0
    2.8648    3.1536    1.5003 H   0  0  0  0  0  0  0  0  0  0  0  0
    0.0893   -2.6195   -1.8726 H   0  0  0  0  0  0  0  0  0  0  0  0
   -0.1736   -0.8398   -1.8698 H   0  0  0  0  0  0  0  0  0  0  0  0
   -2.1593   -0.2603    3.2902 H   0  0  0  0  0  0  0  0  0  0  0  0
   -1.6411   -1.6840    2.3481 H   0  0  0  0  0  0  0  0  0  0  0  0
    0.2553    0.3343    3.6529 H   0  0  0  0  0  0  0  0  0  0  0  0
   -0.1271   -1.2683    4.3066 H   0  0  0  0  0  0  0  0  0  0  0  0
    0.7371   -1.1199    2.7682 H   0  0  0  0  0  0  0  0  0  0  0  0
   -4.5220   -1.7916    0.0192 H   0  0  0  0  0  0  0  0  0  0  0  0
   -5.5136   -0.4955    0.7533 H   0  0  0  0  0  0  0  0  0  0  0  0
   -4.0669   -0.3561   -1.9456 H   0  0  0  0  0  0  0  0  0  0  0  0
   -5.8134   -0.5330   -1.7175 H   0  0  0  0  0  0  0  0  0  0  0  0
   -4.9948    0.9623   -1.2298 H   0  0  0  0  0  0  0  0  0  0  0  0
  1  2  1  0  0  0  0
  2  3  1  0  0  0  0
  3  4  2  0  0  0  0
  4  5  2  0  0  0  0
  4  6  1  0  0  0  0
  6  7  1  0  0  0  0
  7  8  1  0  0  0  0
  4  9  1  0  0  0  0
  9 10  1  0  0  0  0
 10 11  1  0  0  0  0
 11 12  1  0  0  0  0
 12 13  2  0  0  0  0
 12 14  2  0  0  0  0
 14 15  1  0  0  0  0
 15 16  1  0  0  0  0
 12 17  2  0  0  0  0
 17 18  1  0  0  0  0
 18 19  1  0  0  0  0
  1 20  1  0  0  0  0
  1 21  1  0  0  0  0
  1 22  1  0  0  0  0
  2 23  1  0  0  0  0
  2 24  1  0  0  0  0
  7 25  1  0  0  0  0
  7 26  1  0  0  0  0
  8 27  1  0  0  0  0
  8 28  1  0  0  0  0
  8 29  1  0  0  0  0
 10 30  1  0  0  0  0
 10 31  1  0  0  0  0
 15 32  1  0  0  0  0
 15 33  1  0  0  0  0
 16 34  1  0  0  0  0
 16 35  1  0  0  0  0
 16 36  1  0  0  0  0
 18 37  1  0  0  0  0
 18 38  1  0  0  0  0
 19 39  1  0  0  0  0
 19 40  1  0  0  0  0
 19 41  1  0  0  0  0
M  END
