 xtb: 6.7.1 (edcfbbe)
          04092505213D

 41 40  0     0  0            999 V2000
    5.4024    0.3632   -0.2252 C   0  0  0  0  0  0  0  0  0  0  0  0
    4.3185   -0.3447   -1.0156 C   0  0  0  0  0  0  0  0  0  0  0  0
    3.2398   -0.7622   -0.1623 O   0  0  0  0  0  0  0  0  0  0  0  0
    1.9378    0.1424    0.0621 P   0  0  0  0  0  0  0  0  0  0  0  0
    2.2756    1.9152    0.8293 S   0  0  0  0  0  0  0  0  0  0  0  0
    1.0768   -0.8675    0.9239 O   0  0  0  0  0  0  0  0  0  0  0  0
    1.0356   -0.7401    2.3579 C   0  0  0  0  0  0  0  0  0  0  0  0
    2.3493   -1.1531    2.9852 C   0  0  0  0  0  0  0  0  0  0  0  0
    1.0374    0.1361   -1.8592 S   0  0  0  0  0  0  0  0  0  0  0  0
   -0.1657   -1.2325   -1.7663 C   0  0  0  0  0  0  0  0  0  0  0  0
   -1.8873   -0.6744   -1.9362 S   0  0  0  0  0  0  0  0  0  0  0  0
   -2.2248    0.0290    0.0371 P   0  0  0  0  0  0  0  0  0  0  0  0
   -4.0125    0.7247    0.4207 S   0  0  0  0  0  0  0  0  0  0  0  0
   -1.0080    1.0218    0.3331 O   0  0  0  0  0  0  0  0  0  0  0  0
   -1.2055    2.4440    0.1995 C   0  0  0  0  0  0  0  0  0  0  0  0
   -1.4024    2.8638   -1.2431 C   0  0  0  0  0  0  0  0  0  0  0  0
   -1.7487   -1.1651    0.9753 O   0  0  0  0  0  0  0  0  0  0  0  0
   -2.6877   -2.1583    1.4325 C   0  0  0  0  0  0  0  0  0  0  0  0
   -3.1239   -3.0934    0.3219 C   0  0  0  0  0  0  0  0  0  0  0  0
    6.2210    0.6186   -0.8901 H   0  0  0  0  0  0  0  0  0  0  0  0
    5.0110    1.2749    0.2208 H   0  0  0  0  0  0  0  0  0  0  0  0
    5.7705   -0.2841    0.5660 H   0  0  0  0  0  0  0  0  0  0  0  0
    4.6935   -1.2690   -1.4595 H   0  0  0  0  0  0  0  0  0  0  0  0
    3.9220    0.3031   -1.8052 H   0  0  0  0  0  0  0  0  0  0  0  0
    0.7898    0.2966    2.6095 H   0  0  0  0  0  0  0  0  0  0  0  0
    0.2141   -1.3909    2.6580 H   0  0  0  0  0  0  0  0  0  0  0  0
    2.2571   -1.1241    4.0663 H   0  0  0  0  0  0  0  0  0  0  0  0
    2.6187   -2.1569    2.6680 H   0  0  0  0  0  0  0  0  0  0  0  0
    3.1344   -0.4635    2.6773 H   0  0  0  0  0  0  0  0  0  0  0  0
   -0.0350   -1.7561   -0.8240 H   0  0  0  0  0  0  0  0  0  0  0  0
    0.0154   -1.8766   -2.6222 H   0  0  0  0  0  0  0  0  0  0  0  0
   -2.0721    2.7277    0.8043 H   0  0  0  0  0  0  0  0  0  0  0  0
   -0.2990    2.8806    0.6237 H   0  0  0  0  0  0  0  0  0  0  0  0
   -1.4961    3.9441   -1.2867 H   0  0  0  0  0  0  0  0  0  0  0  0
   -0.5556    2.5548   -1.8520 H   0  0  0  0  0  0  0  0  0  0  0  0
   -2.3117    2.4130   -1.6416 H   0  0  0  0  0  0  0  0  0  0  0  0
   -2.1492   -2.6918    2.2174 H   0  0  0  0  0  0  0  0  0  0  0  0
   -3.5529   -1.6439    1.8622 H   0  0  0  0  0  0  0  0  0  0  0  0
   -3.7598   -3.8672    0.7401 H   0  0  0  0  0  0  0  0  0  0  0  0
   -3.6879   -2.5430   -0.4301 H   0  0  0  0  0  0  0  0  0  0  0  0
   -2.2619   -3.5564   -0.1517 H   0  0  0  0  0  0  0  0  0  0  0  0
  1  2  1  0  0  0  0
  2  3  1  0  0  0  0
  3  4  1  0  0  0  0
  4  5  2  0  0  0  0
  4  6  1  0  0  0  0
  6  7  1  0  0  0  0
  7  8  1  0  0  0  0
  4  9  1  0  0  0  0
  9 10  1  0  0  0  0
 10 11  1  0  0  0  0
 11 12  1  0  0  0  0
 12 13  2  0  0  0  0
 12 14  1  0  0  0  0
 14 15  1  0  0  0  0
 15 16  1  0  0  0  0
 12 17  2  0  0  0  0
 17 18  1  0  0  0  0
 18 19  1  0  0  0  0
  1 20  1  0  0  0  0
  1 21  1  0  0  0  0
  1 22  1  0  0  0  0
  2 23  1  0  0  0  0
  2 24  1  0  0  0  0
  7 25  1  0  0  0  0
  7 26  1  0  0  0  0
  8 27  1  0  0  0  0
  8 28  1  0  0  0  0
  8 29  1  0  0  0  0
 10 30  1  0  0  0  0
 10 31  1  0  0  0  0
 15 32  1  0  0  0  0
 15 33  1  0  0  0  0
 16 34  1  0  0  0  0
 16 35  1  0  0  0  0
 16 36  1  0  0  0  0
 18 37  1  0  0  0  0
 18 38  1  0  0  0  0
 19 39  1  0  0  0  0
 19 40  1  0  0  0  0
 19 41  1  0  0  0  0
M  END
