 xtb: 6.7.1 (edcfbbe)
          04092505203D

 41 40  0     0  0            999 V2000
    1.8234   -3.8037   -0.1411 C   0  0  0  0  0  0  0  0  0  0  0  0
    1.3452   -2.4149    0.2333 C   0  0  0  0  0  0  0  0  0  0  0  0
    2.4365   -1.5018    0.0386 O   0  0  0  0  0  0  0  0  0  0  0  0
    2.2772    0.0262   -0.3810 P   0  0  0  0  0  0  0  0  0  0  0  0
    0.9624    0.3437   -1.7983 S   0  0  0  0  0  0  0  0  0  0  0  0
    3.7277    0.3975   -0.8498 O   0  0  0  0  0  0  0  0  0  0  0  0
    4.8660    0.6782    0.0040 C   0  0  0  0  0  0  0  0  0  0  0  0
    5.1804   -0.4580    0.9517 C   0  0  0  0  0  0  0  0  0  0  0  0
    1.9958    1.1306    1.4220 S   0  0  0  0  0  0  0  0  0  0  0  0
    0.2356    1.4844    1.2953 C   0  0  0  0  0  0  0  0  0  0  0  0
   -0.7999   -0.0010    1.5734 S   0  0  0  0  0  0  0  0  0  0  0  0
   -2.1762    0.1927   -0.0142 P   0  0  0  0  0  0  0  0  0  0  0  0
   -2.2687    1.9210   -0.9421 S   0  0  0  0  0  0  0  0  0  0  0  0
   -3.5543   -0.2814    0.6250 O   0  0  0  0  0  0  0  0  0  0  0  0
   -4.4773    0.6290    1.2452 C   0  0  0  0  0  0  0  0  0  0  0  0
   -3.9174    1.2409    2.5134 C   0  0  0  0  0  0  0  0  0  0  0  0
   -1.7955   -1.0940   -0.8566 O   0  0  0  0  0  0  0  0  0  0  0  0
   -2.1603   -1.2479   -2.2418 C   0  0  0  0  0  0  0  0  0  0  0  0
   -3.6605   -1.2994   -2.4359 C   0  0  0  0  0  0  0  0  0  0  0  0
    1.0167   -4.5118    0.0176 H   0  0  0  0  0  0  0  0  0  0  0  0
    2.1216   -3.8262   -1.1859 H   0  0  0  0  0  0  0  0  0  0  0  0
    2.6735   -4.0813    0.4749 H   0  0  0  0  0  0  0  0  0  0  0  0
    1.0453   -2.3656    1.2840 H   0  0  0  0  0  0  0  0  0  0  0  0
    0.5006   -2.1042   -0.3916 H   0  0  0  0  0  0  0  0  0  0  0  0
    5.6728    0.8446   -0.7112 H   0  0  0  0  0  0  0  0  0  0  0  0
    4.6588    1.5995    0.5539 H   0  0  0  0  0  0  0  0  0  0  0  0
    4.3711   -0.5839    1.6679 H   0  0  0  0  0  0  0  0  0  0  0  0
    5.3118   -1.3841    0.3987 H   0  0  0  0  0  0  0  0  0  0  0  0
    6.0944   -0.2264    1.4896 H   0  0  0  0  0  0  0  0  0  0  0  0
    0.0013    1.8901    0.3077 H   0  0  0  0  0  0  0  0  0  0  0  0
    0.0237    2.2066    2.0797 H   0  0  0  0  0  0  0  0  0  0  0  0
   -4.7274    1.4117    0.5218 H   0  0  0  0  0  0  0  0  0  0  0  0
   -5.3547    0.0134    1.4473 H   0  0  0  0  0  0  0  0  0  0  0  0
   -4.6939    1.8164    3.0070 H   0  0  0  0  0  0  0  0  0  0  0  0
   -3.5603    0.4634    3.1839 H   0  0  0  0  0  0  0  0  0  0  0  0
   -3.0892    1.9050    2.2684 H   0  0  0  0  0  0  0  0  0  0  0  0
   -1.7148   -0.4214   -2.8059 H   0  0  0  0  0  0  0  0  0  0  0  0
   -1.6803   -2.1832   -2.5339 H   0  0  0  0  0  0  0  0  0  0  0  0
   -4.0932   -2.0701   -1.8032 H   0  0  0  0  0  0  0  0  0  0  0  0
   -4.1012   -0.3378   -2.1748 H   0  0  0  0  0  0  0  0  0  0  0  0
   -3.8796   -1.5159   -3.4767 H   0  0  0  0  0  0  0  0  0  0  0  0
  1  2  1  0  0  0  0
  2  3  1  0  0  0  0
  3  4  2  0  0  0  0
  4  5  2  0  0  0  0
  4  6  2  0  0  0  0
  6  7  1  0  0  0  0
  7  8  1  0  0  0  0
  4  9  1  0  0  0  0
  9 10  1  0  0  0  0
 10 11  1  0  0  0  0
 11 12  1  0  0  0  0
 12 13  2  0  0  0  0
 12 14  2  0  0  0  0
 14 15  1  0  0  0  0
 15 16  1  0  0  0  0
 12 17  2  0  0  0  0
 17 18  1  0  0  0  0
 18 19  1  0  0  0  0
  1 20  1  0  0  0  0
  1 21  1  0  0  0  0
  1 22  1  0  0  0  0
  2 23  1  0  0  0  0
  2 24  1  0  0  0  0
  7 25  1  0  0  0  0
  7 26  1  0  0  0  0
  8 27  1  0  0  0  0
  8 28  1  0  0  0  0
  8 29  1  0  0  0  0
 10 30  1  0  0  0  0
 10 31  1  0  0  0  0
 15 32  1  0  0  0  0
 15 33  1  0  0  0  0
 16 34  1  0  0  0  0
 16 35  1  0  0  0  0
 16 36  1  0  0  0  0
 18 37  1  0  0  0  0
 18 38  1  0  0  0  0
 19 39  1  0  0  0  0
 19 40  1  0  0  0  0
 19 41  1  0  0  0  0
M  END
