 xtb: 6.7.1 (edcfbbe)
          04092505213D

 41 40  0     0  0            999 V2000
    3.1224   -1.2553   -2.5762 C   0  0  0  0  0  0  0  0  0  0  0  0
    1.8998   -0.4509   -2.1886 C   0  0  0  0  0  0  0  0  0  0  0  0
    1.3819   -0.8564   -0.9100 O   0  0  0  0  0  0  0  0  0  0  0  0
    2.1354   -0.5384    0.4516 P   0  0  0  0  0  0  0  0  0  0  0  0
    3.2798    1.0582    0.4787 S   0  0  0  0  0  0  0  0  0  0  0  0
    2.8982   -1.9094    0.7036 O   0  0  0  0  0  0  0  0  0  0  0  0
    3.9666   -2.0349    1.6595 C   0  0  0  0  0  0  0  0  0  0  0  0
    3.4736   -1.9091    3.0867 C   0  0  0  0  0  0  0  0  0  0  0  0
    0.5149   -0.6183    1.7872 S   0  0  0  0  0  0  0  0  0  0  0  0
   -0.0281    1.1120    1.6351 C   0  0  0  0  0  0  0  0  0  0  0  0
   -0.1806    1.7206   -0.0727 S   0  0  0  0  0  0  0  0  0  0  0  0
   -1.9167    0.6966   -0.7076 P   0  0  0  0  0  0  0  0  0  0  0  0
   -2.4287    1.1680   -2.5384 S   0  0  0  0  0  0  0  0  0  0  0  0
   -3.0164    0.9819    0.4114 O   0  0  0  0  0  0  0  0  0  0  0  0
   -3.9559    2.0698    0.3237 C   0  0  0  0  0  0  0  0  0  0  0  0
   -5.2962    1.5848    0.8407 C   0  0  0  0  0  0  0  0  0  0  0  0
   -1.5154   -0.8001   -0.4004 O   0  0  0  0  0  0  0  0  0  0  0  0
   -2.4601   -1.8456   -0.0775 C   0  0  0  0  0  0  0  0  0  0  0  0
   -3.4457   -2.0869   -1.2006 C   0  0  0  0  0  0  0  0  0  0  0  0
    2.8994   -2.3182   -2.5356 H   0  0  0  0  0  0  0  0  0  0  0  0
    3.4271   -0.9849   -3.5823 H   0  0  0  0  0  0  0  0  0  0  0  0
    3.9380   -1.0381   -1.8872 H   0  0  0  0  0  0  0  0  0  0  0  0
    1.0669   -0.6119   -2.8764 H   0  0  0  0  0  0  0  0  0  0  0  0
    2.1328    0.6193   -2.1466 H   0  0  0  0  0  0  0  0  0  0  0  0
    4.3802   -3.0244    1.4602 H   0  0  0  0  0  0  0  0  0  0  0  0
    4.7153   -1.2662    1.4425 H   0  0  0  0  0  0  0  0  0  0  0  0
    4.2876   -2.1350    3.7680 H   0  0  0  0  0  0  0  0  0  0  0  0
    3.1285   -0.8932    3.2730 H   0  0  0  0  0  0  0  0  0  0  0  0
    2.6506   -2.5967    3.2643 H   0  0  0  0  0  0  0  0  0  0  0  0
    0.7134    1.7620    2.0968 H   0  0  0  0  0  0  0  0  0  0  0  0
   -0.9862    1.1806    2.1443 H   0  0  0  0  0  0  0  0  0  0  0  0
   -3.5689    2.8926    0.9291 H   0  0  0  0  0  0  0  0  0  0  0  0
   -4.0243    2.3924   -0.7207 H   0  0  0  0  0  0  0  0  0  0  0  0
   -6.0011    2.4094    0.8232 H   0  0  0  0  0  0  0  0  0  0  0  0
   -5.6738    0.7817    0.2136 H   0  0  0  0  0  0  0  0  0  0  0  0
   -5.1946    1.2209    1.8591 H   0  0  0  0  0  0  0  0  0  0  0  0
   -1.8231   -2.7141    0.0980 H   0  0  0  0  0  0  0  0  0  0  0  0
   -2.9736   -1.5705    0.8459 H   0  0  0  0  0  0  0  0  0  0  0  0
   -4.1060   -2.9058   -0.9329 H   0  0  0  0  0  0  0  0  0  0  0  0
   -4.0391   -1.1902   -1.3762 H   0  0  0  0  0  0  0  0  0  0  0  0
   -2.9207   -2.3323   -2.1208 H   0  0  0  0  0  0  0  0  0  0  0  0
  1  2  1  0  0  0  0
  2  3  1  0  0  0  0
  3  4  2  0  0  0  0
  4  5  2  0  0  0  0
  4  6  2  0  0  0  0
  6  7  1  0  0  0  0
  7  8  1  0  0  0  0
  4  9  1  0  0  0  0
  9 10  1  0  0  0  0
 10 11  1  0  0  0  0
 11 12  1  0  0  0  0
 12 13  2  0  0  0  0
 12 14  2  0  0  0  0
 14 15  1  0  0  0  0
 15 16  1  0  0  0  0
 12 17  2  0  0  0  0
 17 18  1  0  0  0  0
 18 19  1  0  0  0  0
  1 20  1  0  0  0  0
  1 21  1  0  0  0  0
  1 22  1  0  0  0  0
  2 23  1  0  0  0  0
  2 24  1  0  0  0  0
  7 25  1  0  0  0  0
  7 26  1  0  0  0  0
  8 27  1  0  0  0  0
  8 28  1  0  0  0  0
  8 29  1  0  0  0  0
 10 30  1  0  0  0  0
 10 31  1  0  0  0  0
 15 32  1  0  0  0  0
 15 33  1  0  0  0  0
 16 34  1  0  0  0  0
 16 35  1  0  0  0  0
 16 36  1  0  0  0  0
 18 37  1  0  0  0  0
 18 38  1  0  0  0  0
 19 39  1  0  0  0  0
 19 40  1  0  0  0  0
 19 41  1  0  0  0  0
M  END
