 xtb: 6.7.1 (edcfbbe)
          04092505203D

 41 40  0     0  0            999 V2000
    3.5252    1.5855   -2.0831 C   0  0  0  0  0  0  0  0  0  0  0  0
    2.2737    0.7515   -1.9125 C   0  0  0  0  0  0  0  0  0  0  0  0
    1.6207    1.0637   -0.6553 O   0  0  0  0  0  0  0  0  0  0  0  0
    1.8164    0.2220    0.6569 P   0  0  0  0  0  0  0  0  0  0  0  0
    1.2139    1.1433    2.2702 S   0  0  0  0  0  0  0  0  0  0  0  0
    3.3775   -0.0794    0.6208 O   0  0  0  0  0  0  0  0  0  0  0  0
    4.0204   -0.7934    1.6964 C   0  0  0  0  0  0  0  0  0  0  0  0
    5.5182   -0.6649    1.5083 C   0  0  0  0  0  0  0  0  0  0  0  0
    1.0186   -1.7445    0.3799 S   0  0  0  0  0  0  0  0  0  0  0  0
   -0.3735   -1.6965    1.5372 C   0  0  0  0  0  0  0  0  0  0  0  0
   -2.0167   -1.7162    0.7594 S   0  0  0  0  0  0  0  0  0  0  0  0
   -1.7934   -0.1542   -0.6799 P   0  0  0  0  0  0  0  0  0  0  0  0
   -0.8199   -0.5722   -2.3228 S   0  0  0  0  0  0  0  0  0  0  0  0
   -1.2178    1.0834    0.1082 O   0  0  0  0  0  0  0  0  0  0  0  0
   -2.0028    1.7993    1.1027 C   0  0  0  0  0  0  0  0  0  0  0  0
   -2.6246    3.0349    0.4896 C   0  0  0  0  0  0  0  0  0  0  0  0
   -3.3082    0.2454   -0.9303 O   0  0  0  0  0  0  0  0  0  0  0  0
   -4.1870   -0.6161   -1.6839 C   0  0  0  0  0  0  0  0  0  0  0  0
   -5.4201    0.1841   -2.0499 C   0  0  0  0  0  0  0  0  0  0  0  0
    3.9468    1.3878   -3.0636 H   0  0  0  0  0  0  0  0  0  0  0  0
    3.2803    2.6411   -2.0028 H   0  0  0  0  0  0  0  0  0  0  0  0
    4.2551    1.3330   -1.3186 H   0  0  0  0  0  0  0  0  0  0  0  0
    2.4926   -0.3186   -1.9450 H   0  0  0  0  0  0  0  0  0  0  0  0
    1.5260    0.9838   -2.6733 H   0  0  0  0  0  0  0  0  0  0  0  0
    3.6951   -0.3561    2.6459 H   0  0  0  0  0  0  0  0  0  0  0  0
    3.6998   -1.8381    1.6544 H   0  0  0  0  0  0  0  0  0  0  0  0
    5.8097   -1.0807    0.5481 H   0  0  0  0  0  0  0  0  0  0  0  0
    5.8118    0.3805    1.5452 H   0  0  0  0  0  0  0  0  0  0  0  0
    6.0226   -1.2060    2.3019 H   0  0  0  0  0  0  0  0  0  0  0  0
   -0.2691   -0.8051    2.1635 H   0  0  0  0  0  0  0  0  0  0  0  0
   -0.3330   -2.6025    2.1371 H   0  0  0  0  0  0  0  0  0  0  0  0
   -2.7635    1.1262    1.5051 H   0  0  0  0  0  0  0  0  0  0  0  0
   -1.2847    2.0585    1.8839 H   0  0  0  0  0  0  0  0  0  0  0  0
   -1.8499    3.6630    0.0580 H   0  0  0  0  0  0  0  0  0  0  0  0
   -3.3285    2.7562   -0.2903 H   0  0  0  0  0  0  0  0  0  0  0  0
   -3.1444    3.5884    1.2652 H   0  0  0  0  0  0  0  0  0  0  0  0
   -3.6526   -0.9647   -2.5737 H   0  0  0  0  0  0  0  0  0  0  0  0
   -4.4376   -1.4765   -1.0574 H   0  0  0  0  0  0  0  0  0  0  0  0
   -5.9127    0.5413   -1.1503 H   0  0  0  0  0  0  0  0  0  0  0  0
   -5.1442    1.0358   -2.6653 H   0  0  0  0  0  0  0  0  0  0  0  0
   -6.1021   -0.4514   -2.6049 H   0  0  0  0  0  0  0  0  0  0  0  0
  1  2  1  0  0  0  0
  2  3  1  0  0  0  0
  3  4  2  0  0  0  0
  4  5  2  0  0  0  0
  4  6  2  0  0  0  0
  6  7  1  0  0  0  0
  7  8  1  0  0  0  0
  4  9  1  0  0  0  0
  9 10  1  0  0  0  0
 10 11  1  0  0  0  0
 11 12  1  0  0  0  0
 12 13  2  0  0  0  0
 12 14  2  0  0  0  0
 14 15  1  0  0  0  0
 15 16  1  0  0  0  0
 12 17  2  0  0  0  0
 17 18  1  0  0  0  0
 18 19  1  0  0  0  0
  1 20  1  0  0  0  0
  1 21  1  0  0  0  0
  1 22  1  0  0  0  0
  2 23  1  0  0  0  0
  2 24  1  0  0  0  0
  7 25  1  0  0  0  0
  7 26  1  0  0  0  0
  8 27  1  0  0  0  0
  8 28  1  0  0  0  0
  8 29  1  0  0  0  0
 10 30  1  0  0  0  0
 10 31  1  0  0  0  0
 15 32  1  0  0  0  0
 15 33  1  0  0  0  0
 16 34  1  0  0  0  0
 16 35  1  0  0  0  0
 16 36  1  0  0  0  0
 18 37  1  0  0  0  0
 18 38  1  0  0  0  0
 19 39  1  0  0  0  0
 19 40  1  0  0  0  0
 19 41  1  0  0  0  0
M  END
