 xtb: 6.7.1 (edcfbbe)
          04092507313D

 38 37  0     0  0            999 V2000
    3.4316   -3.5846    0.4649 C   0  0  0  0  0  0  0  0  0  0  0  0
    3.8293   -2.7784   -0.7609 C   0  0  0  0  0  0  0  0  0  0  0  0
    2.6640   -2.2657   -1.4408 O   0  0  0  0  0  0  0  0  0  0  0  0
    2.1494   -1.1268   -1.0382 C   0  0  0  0  0  0  0  0  0  0  0  0
    2.6021   -0.4397   -0.1442 O   0  0  0  0  0  0  0  0  0  0  0  0
    0.8960   -0.7744   -1.8047 C   0  0  0  0  0  0  0  0  0  0  0  0
    0.4831    0.6745   -1.5487 C   0  0  0  0  0  0  0  0  0  0  0  0
    0.9308    1.3653   -2.2628 H   0  0  0  0  0  0  0  0  0  0  0  0
    0.7914    1.1417   -0.1400 C   0  0  0  0  0  0  0  0  0  0  0  0
    0.1962    0.6595    0.8137 O   0  0  0  0  0  0  0  0  0  0  0  0
    1.5705    2.1810   -0.1007 O   0  0  0  0  0  0  0  0  0  0  0  0
    1.8829    2.7744    1.1794 C   0  0  0  0  0  0  0  0  0  0  0  0
    3.2191    2.2609    1.6873 C   0  0  0  0  0  0  0  0  0  0  0  0
   -1.3282    0.8694   -1.6868 S   0  0  0  0  0  0  0  0  0  0  0  0
   -2.0605    0.1934    0.1962 P   0  0  0  0  0  0  0  0  0  0  0  0
   -2.3978    1.3185    1.7779 S   0  0  0  0  0  0  0  0  0  0  0  0
   -3.4505   -0.1010   -0.5649 O   0  0  0  0  0  0  0  0  0  0  0  0
   -4.6502   -0.4445    0.1295 C   0  0  0  0  0  0  0  0  0  0  0  0
   -1.6106   -1.3229    0.4857 O   0  0  0  0  0  0  0  0  0  0  0  0
   -0.8736   -1.7498    1.6282 C   0  0  0  0  0  0  0  0  0  0  0  0
    2.9456   -2.9431    1.1972 H   0  0  0  0  0  0  0  0  0  0  0  0
    2.7492   -4.3821    0.1845 H   0  0  0  0  0  0  0  0  0  0  0  0
    4.3202   -4.0159    0.9137 H   0  0  0  0  0  0  0  0  0  0  0  0
    4.3216   -3.4035   -1.5054 H   0  0  0  0  0  0  0  0  0  0  0  0
    4.4695   -1.9369   -0.4824 H   0  0  0  0  0  0  0  0  0  0  0  0
    0.1128   -1.4572   -1.4612 H   0  0  0  0  0  0  0  0  0  0  0  0
    1.0407   -0.9567   -2.8684 H   0  0  0  0  0  0  0  0  0  0  0  0
    1.9146    3.8466    0.9817 H   0  0  0  0  0  0  0  0  0  0  0  0
    1.0743    2.5409    1.8782 H   0  0  0  0  0  0  0  0  0  0  0  0
    4.0085    2.5211    0.9884 H   0  0  0  0  0  0  0  0  0  0  0  0
    3.4289    2.7046    2.6547 H   0  0  0  0  0  0  0  0  0  0  0  0
    3.1847    1.1789    1.7861 H   0  0  0  0  0  0  0  0  0  0  0  0
   -4.6363   -1.5020    0.3916 H   0  0  0  0  0  0  0  0  0  0  0  0
   -5.4638   -0.2311   -0.5593 H   0  0  0  0  0  0  0  0  0  0  0  0
   -4.7491    0.1603    1.0340 H   0  0  0  0  0  0  0  0  0  0  0  0
    0.1941   -1.7268    1.4120 H   0  0  0  0  0  0  0  0  0  0  0  0
   -1.2067   -2.7640    1.8363 H   0  0  0  0  0  0  0  0  0  0  0  0
   -1.0781   -1.0929    2.4753 H   0  0  0  0  0  0  0  0  0  0  0  0
  1  2  1  0  0  0  0
  2  3  1  0  0  0  0
  3  4  4  0  0  0  0
  4  5  2  0  0  0  0
  4  6  1  0  0  0  0
  6  7  1  0  0  0  0
  7  8  1  0  0  0  0
  7  9  1  0  0  0  0
  9 10  2  0  0  0  0
  9 11  4  0  0  0  0
 11 12  1  0  0  0  0
 12 13  1  0  0  0  0
  7 14  1  0  0  0  0
 14 15  1  0  0  0  0
 15 16  2  0  0  0  0
 15 17  1  0  0  0  0
 17 18  1  0  0  0  0
 15 19  1  0  0  0  0
 19 20  1  0  0  0  0
  1 21  1  0  0  0  0
  1 22  1  0  0  0  0
  1 23  1  0  0  0  0
  2 24  1  0  0  0  0
  2 25  1  0  0  0  0
  6 26  1  0  0  0  0
  6 27  1  0  0  0  0
 12 28  1  0  0  0  0
 12 29  1  0  0  0  0
 13 30  1  0  0  0  0
 13 31  1  0  0  0  0
 13 32  1  0  0  0  0
 18 33  1  0  0  0  0
 18 34  1  0  0  0  0
 18 35  1  0  0  0  0
 20 36  1  0  0  0  0
 20 37  1  0  0  0  0
 20 38  1  0  0  0  0
M  END
