 xtb: 6.7.1 (edcfbbe)
          04032520413D

 14 14  0     0  0            999 V2000
   -2.3950    0.0294   -0.0000 C   0  0  0  0  0  0  0  0  0  0  0  0
   -0.8991    0.0257    0.0000 C   0  0  0  0  0  0  0  0  0  0  0  0
   -0.1784    1.2200    0.0001 C   0  0  0  0  0  0  0  0  0  0  0  0
    1.2030    1.1718    0.0001 C   0  0  0  0  0  0  0  0  0  0  0  0
    1.8276   -0.0676   -0.0000 C   0  0  0  0  0  0  0  0  0  0  0  0
    1.0272   -1.1970    0.0000 C   0  0  0  0  0  0  0  0  0  0  0  0
   -0.2965   -1.1583    0.0001 N   0  0  0  0  0  0  0  0  0  0  0  0
   -2.7677    0.5448   -0.8828 H   0  0  0  0  0  0  0  0  0  0  0  0
   -2.7635   -0.9912    0.0033 H   0  0  0  0  0  0  0  0  0  0  0  0
   -2.7680    0.5510    0.8789 H   0  0  0  0  0  0  0  0  0  0  0  0
   -0.7018    2.1637   -0.0003 H   0  0  0  0  0  0  0  0  0  0  0  0
    1.7854    2.0814   -0.0006 H   0  0  0  0  0  0  0  0  0  0  0  0
    2.9022   -0.1542   -0.0004 H   0  0  0  0  0  0  0  0  0  0  0  0
    1.4592   -2.1894   -0.0005 H   0  0  0  0  0  0  0  0  0  0  0  0
  1  2  1  0  0  0  0
  2  3  4  0  0  0  0
  3  4  4  0  0  0  0
  4  5  4  0  0  0  0
  5  6  4  0  0  0  0
  2  7  4  0  0  0  0
  6  7  4  0  0  0  0
  1  8  1  0  0  0  0
  1  9  1  0  0  0  0
  1 10  1  0  0  0  0
  3 11  1  0  0  0  0
  4 12  1  0  0  0  0
  5 13  1  0  0  0  0
  6 14  1  0  0  0  0
M  END
