 xtb: 6.7.1 (edcfbbe)
          04092507313D

 38 37  0     0  0            999 V2000
    2.1375   -3.8705    0.4598 C   0  0  0  0  0  0  0  0  0  0  0  0
    2.8075   -2.5104    0.4238 C   0  0  0  0  0  0  0  0  0  0  0  0
    2.2952   -1.7779   -0.7060 O   0  0  0  0  0  0  0  0  0  0  0  0
    2.0943   -0.4870   -0.6067 C   0  0  0  0  0  0  0  0  0  0  0  0
    2.3084    0.1862    0.3833 O   0  0  0  0  0  0  0  0  0  0  0  0
    1.5814    0.1104   -1.9043 C   0  0  0  0  0  0  0  0  0  0  0  0
    0.3398    0.9728   -1.6555 C   0  0  0  0  0  0  0  0  0  0  0  0
    0.2031    1.6731   -2.4826 H   0  0  0  0  0  0  0  0  0  0  0  0
    0.4610    1.7509   -0.3592 C   0  0  0  0  0  0  0  0  0  0  0  0
   -0.2556    1.5306    0.6032 O   0  0  0  0  0  0  0  0  0  0  0  0
    1.3474    2.6971   -0.4325 O   0  0  0  0  0  0  0  0  0  0  0  0
    1.6286    3.4589    0.7617 C   0  0  0  0  0  0  0  0  0  0  0  0
    2.5027    4.6324    0.3693 C   0  0  0  0  0  0  0  0  0  0  0  0
   -1.1932   -0.0093   -1.6077 S   0  0  0  0  0  0  0  0  0  0  0  0
   -1.6393   -0.4490    0.4328 P   0  0  0  0  0  0  0  0  0  0  0  0
   -0.3495   -1.2248    1.6883 S   0  0  0  0  0  0  0  0  0  0  0  0
   -2.6183    0.6485    1.0279 O   0  0  0  0  0  0  0  0  0  0  0  0
   -3.8574    1.0055    0.3876 C   0  0  0  0  0  0  0  0  0  0  0  0
   -2.7637   -1.5594    0.0755 O   0  0  0  0  0  0  0  0  0  0  0  0
   -2.4210   -2.8772   -0.3508 C   0  0  0  0  0  0  0  0  0  0  0  0
    1.0800   -3.7515    0.6806 H   0  0  0  0  0  0  0  0  0  0  0  0
    2.2525   -4.3671   -0.4986 H   0  0  0  0  0  0  0  0  0  0  0  0
    2.5929   -4.4718    1.2391 H   0  0  0  0  0  0  0  0  0  0  0  0
    3.8880   -2.5994    0.2821 H   0  0  0  0  0  0  0  0  0  0  0  0
    2.6009   -1.9386    1.3334 H   0  0  0  0  0  0  0  0  0  0  0  0
    1.3563   -0.6830   -2.6154 H   0  0  0  0  0  0  0  0  0  0  0  0
    2.3749    0.7483   -2.2995 H   0  0  0  0  0  0  0  0  0  0  0  0
    0.6781    3.7766    1.2014 H   0  0  0  0  0  0  0  0  0  0  0  0
    2.1295    2.7854    1.4643 H   0  0  0  0  0  0  0  0  0  0  0  0
    2.7357    5.2129    1.2555 H   0  0  0  0  0  0  0  0  0  0  0  0
    3.4253    4.2738   -0.0763 H   0  0  0  0  0  0  0  0  0  0  0  0
    1.9844    5.2627   -0.3469 H   0  0  0  0  0  0  0  0  0  0  0  0
   -3.6947    1.1981   -0.6732 H   0  0  0  0  0  0  0  0  0  0  0  0
   -4.1877    1.9071    0.8975 H   0  0  0  0  0  0  0  0  0  0  0  0
   -4.5799    0.2007    0.5114 H   0  0  0  0  0  0  0  0  0  0  0  0
   -1.6429   -3.2865    0.2965 H   0  0  0  0  0  0  0  0  0  0  0  0
   -2.0752   -2.8576   -1.3842 H   0  0  0  0  0  0  0  0  0  0  0  0
   -3.3331   -3.4619   -0.2624 H   0  0  0  0  0  0  0  0  0  0  0  0
  1  2  1  0  0  0  0
  2  3  1  0  0  0  0
  3  4  4  0  0  0  0
  4  5  2  0  0  0  0
  4  6  1  0  0  0  0
  6  7  1  0  0  0  0
  7  8  1  0  0  0  0
  7  9  1  0  0  0  0
  9 10  2  0  0  0  0
  9 11  4  0  0  0  0
 11 12  1  0  0  0  0
 12 13  1  0  0  0  0
  7 14  1  0  0  0  0
 14 15  1  0  0  0  0
 15 16  2  0  0  0  0
 15 17  2  0  0  0  0
 17 18  1  0  0  0  0
 15 19  1  0  0  0  0
 19 20  1  0  0  0  0
  1 21  1  0  0  0  0
  1 22  1  0  0  0  0
  1 23  1  0  0  0  0
  2 24  1  0  0  0  0
  2 25  1  0  0  0  0
  6 26  1  0  0  0  0
  6 27  1  0  0  0  0
 12 28  1  0  0  0  0
 12 29  1  0  0  0  0
 13 30  1  0  0  0  0
 13 31  1  0  0  0  0
 13 32  1  0  0  0  0
 18 33  1  0  0  0  0
 18 34  1  0  0  0  0
 18 35  1  0  0  0  0
 20 36  1  0  0  0  0
 20 37  1  0  0  0  0
 20 38  1  0  0  0  0
M  END
