 xtb: 6.7.1 (edcfbbe)
          04092505203D

 41 40  0     0  0            999 V2000
    3.9066   -1.2119   -2.7542 C   0  0  0  0  0  0  0  0  0  0  0  0
    4.2608   -1.5496   -1.3204 C   0  0  0  0  0  0  0  0  0  0  0  0
    3.0951   -1.6458   -0.4834 O   0  0  0  0  0  0  0  0  0  0  0  0
    2.2001   -0.3823   -0.1144 P   0  0  0  0  0  0  0  0  0  0  0  0
    3.2210    1.2586    0.2386 S   0  0  0  0  0  0  0  0  0  0  0  0
    1.3542   -0.9587    1.0933 O   0  0  0  0  0  0  0  0  0  0  0  0
    1.7863   -0.8635    2.4683 C   0  0  0  0  0  0  0  0  0  0  0  0
    0.5599   -0.7240    3.3469 C   0  0  0  0  0  0  0  0  0  0  0  0
    0.7185   -0.3166   -1.6075 S   0  0  0  0  0  0  0  0  0  0  0  0
    0.1593    1.3790   -1.2850 C   0  0  0  0  0  0  0  0  0  0  0  0
   -0.4954    1.6096    0.3859 S   0  0  0  0  0  0  0  0  0  0  0  0
   -2.2030    0.3806    0.1828 P   0  0  0  0  0  0  0  0  0  0  0  0
   -3.0470    0.2934   -1.5891 S   0  0  0  0  0  0  0  0  0  0  0  0
   -3.1187    0.8459    1.3977 O   0  0  0  0  0  0  0  0  0  0  0  0
   -3.5242    2.1969    1.6846 C   0  0  0  0  0  0  0  0  0  0  0  0
   -4.1351    2.9008    0.4906 C   0  0  0  0  0  0  0  0  0  0  0  0
   -1.7163   -1.0152    0.7469 O   0  0  0  0  0  0  0  0  0  0  0  0
   -2.2517   -2.2909    0.3369 C   0  0  0  0  0  0  0  0  0  0  0  0
   -1.2000   -3.0926   -0.4049 C   0  0  0  0  0  0  0  0  0  0  0  0
    4.8000   -1.2677   -3.3678 H   0  0  0  0  0  0  0  0  0  0  0  0
    3.1622   -1.9074   -3.1339 H   0  0  0  0  0  0  0  0  0  0  0  0
    3.5028   -0.2018   -2.8100 H   0  0  0  0  0  0  0  0  0  0  0  0
    4.9254   -0.7888   -0.8986 H   0  0  0  0  0  0  0  0  0  0  0  0
    4.7231   -2.5343   -1.2395 H   0  0  0  0  0  0  0  0  0  0  0  0
    2.3451   -1.7729    2.7013 H   0  0  0  0  0  0  0  0  0  0  0  0
    2.4487    0.0035    2.5690 H   0  0  0  0  0  0  0  0  0  0  0  0
    0.0235    0.1892    3.1002 H   0  0  0  0  0  0  0  0  0  0  0  0
   -0.1063   -1.5681    3.1930 H   0  0  0  0  0  0  0  0  0  0  0  0
    0.8683   -0.6892    4.3867 H   0  0  0  0  0  0  0  0  0  0  0  0
   -0.6201    1.5863   -2.0181 H   0  0  0  0  0  0  0  0  0  0  0  0
    0.9970    2.0684   -1.3826 H   0  0  0  0  0  0  0  0  0  0  0  0
   -4.2494    2.0796    2.4920 H   0  0  0  0  0  0  0  0  0  0  0  0
   -2.6498    2.7436    2.0489 H   0  0  0  0  0  0  0  0  0  0  0  0
   -4.9551    2.3147    0.0823 H   0  0  0  0  0  0  0  0  0  0  0  0
   -4.5067    3.8730    0.7984 H   0  0  0  0  0  0  0  0  0  0  0  0
   -3.3876    3.0381   -0.2894 H   0  0  0  0  0  0  0  0  0  0  0  0
   -2.5525   -2.7869    1.2617 H   0  0  0  0  0  0  0  0  0  0  0  0
   -3.1312   -2.1269   -0.2934 H   0  0  0  0  0  0  0  0  0  0  0  0
   -0.2757   -3.1144    0.1673 H   0  0  0  0  0  0  0  0  0  0  0  0
   -1.5605   -4.1061   -0.5483 H   0  0  0  0  0  0  0  0  0  0  0  0
   -0.9978   -2.6451   -1.3753 H   0  0  0  0  0  0  0  0  0  0  0  0
  1  2  1  0  0  0  0
  2  3  1  0  0  0  0
  3  4  2  0  0  0  0
  4  5  2  0  0  0  0
  4  6  2  0  0  0  0
  6  7  1  0  0  0  0
  7  8  1  0  0  0  0
  4  9  1  0  0  0  0
  9 10  1  0  0  0  0
 10 11  1  0  0  0  0
 11 12  1  0  0  0  0
 12 13  2  0  0  0  0
 12 14  2  0  0  0  0
 14 15  1  0  0  0  0
 15 16  1  0  0  0  0
 12 17  2  0  0  0  0
 17 18  1  0  0  0  0
 18 19  1  0  0  0  0
  1 20  1  0  0  0  0
  1 21  1  0  0  0  0
  1 22  1  0  0  0  0
  2 23  1  0  0  0  0
  2 24  1  0  0  0  0
  7 25  1  0  0  0  0
  7 26  1  0  0  0  0
  8 27  1  0  0  0  0
  8 28  1  0  0  0  0
  8 29  1  0  0  0  0
 10 30  1  0  0  0  0
 10 31  1  0  0  0  0
 15 32  1  0  0  0  0
 15 33  1  0  0  0  0
 16 34  1  0  0  0  0
 16 35  1  0  0  0  0
 16 36  1  0  0  0  0
 18 37  1  0  0  0  0
 18 38  1  0  0  0  0
 19 39  1  0  0  0  0
 19 40  1  0  0  0  0
 19 41  1  0  0  0  0
M  END
