 xtb: 6.7.1 (edcfbbe)
          04092507313D

 38 37  0     0  0            999 V2000
    1.8420   -4.3427   -1.0829 C   0  0  0  0  0  0  0  0  0  0  0  0
    2.9960   -3.4924   -0.5760 C   0  0  0  0  0  0  0  0  0  0  0  0
    2.5193   -2.2226   -0.0895 O   0  0  0  0  0  0  0  0  0  0  0  0
    2.4557   -1.2130   -0.9327 C   0  0  0  0  0  0  0  0  0  0  0  0
    2.7848   -1.2594   -2.0966 O   0  0  0  0  0  0  0  0  0  0  0  0
    1.9159    0.0373   -0.2616 C   0  0  0  0  0  0  0  0  0  0  0  0
    0.7969    0.6224   -1.1213 C   0  0  0  0  0  0  0  0  0  0  0  0
    1.1710    0.7800   -2.1376 H   0  0  0  0  0  0  0  0  0  0  0  0
    0.2755    1.9290   -0.5613 C   0  0  0  0  0  0  0  0  0  0  0  0
   -0.8929    2.0869   -0.2610 O   0  0  0  0  0  0  0  0  0  0  0  0
    1.2100    2.8267   -0.4526 O   0  0  0  0  0  0  0  0  0  0  0  0
    0.8818    4.0933    0.1642 C   0  0  0  0  0  0  0  0  0  0  0  0
    1.0512    4.0035    1.6717 C   0  0  0  0  0  0  0  0  0  0  0  0
   -0.6072   -0.5286   -1.3033 S   0  0  0  0  0  0  0  0  0  0  0  0
   -1.6947   -0.1800    0.4952 P   0  0  0  0  0  0  0  0  0  0  0  0
   -0.7726    0.3619    2.1486 S   0  0  0  0  0  0  0  0  0  0  0  0
   -3.0893    0.4899    0.1531 O   0  0  0  0  0  0  0  0  0  0  0  0
   -3.5219    1.7838    0.5772 C   0  0  0  0  0  0  0  0  0  0  0  0
   -2.3297   -1.6458    0.6514 O   0  0  0  0  0  0  0  0  0  0  0  0
   -1.5116   -2.7676    0.9868 C   0  0  0  0  0  0  0  0  0  0  0  0
    1.3349   -3.8338   -1.9002 H   0  0  0  0  0  0  0  0  0  0  0  0
    2.2269   -5.2910   -1.4429 H   0  0  0  0  0  0  0  0  0  0  0  0
    1.1303   -4.5270   -0.2825 H   0  0  0  0  0  0  0  0  0  0  0  0
    3.7199   -3.3076   -1.3745 H   0  0  0  0  0  0  0  0  0  0  0  0
    3.4831   -3.9537    0.2832 H   0  0  0  0  0  0  0  0  0  0  0  0
    2.7209    0.7718   -0.1932 H   0  0  0  0  0  0  0  0  0  0  0  0
    1.5637   -0.2092    0.7410 H   0  0  0  0  0  0  0  0  0  0  0  0
    1.5850    4.7987   -0.2777 H   0  0  0  0  0  0  0  0  0  0  0  0
   -0.1453    4.3562   -0.1000 H   0  0  0  0  0  0  0  0  0  0  0  0
    2.0776    3.7527    1.9225 H   0  0  0  0  0  0  0  0  0  0  0  0
    0.7964    4.9583    2.1190 H   0  0  0  0  0  0  0  0  0  0  0  0
    0.3967    3.2358    2.0815 H   0  0  0  0  0  0  0  0  0  0  0  0
   -3.3712    2.4958   -0.2320 H   0  0  0  0  0  0  0  0  0  0  0  0
   -2.9633    2.1042    1.4581 H   0  0  0  0  0  0  0  0  0  0  0  0
   -4.5788    1.6827    0.8144 H   0  0  0  0  0  0  0  0  0  0  0  0
   -0.9026   -2.5408    1.8647 H   0  0  0  0  0  0  0  0  0  0  0  0
   -0.8671   -3.0272    0.1459 H   0  0  0  0  0  0  0  0  0  0  0  0
   -2.2013   -3.5794    1.2031 H   0  0  0  0  0  0  0  0  0  0  0  0
  1  2  1  0  0  0  0
  2  3  1  0  0  0  0
  3  4  1  0  0  0  0
  4  5  2  0  0  0  0
  4  6  1  0  0  0  0
  6  7  1  0  0  0  0
  7  8  1  0  0  0  0
  7  9  1  0  0  0  0
  9 10  2  0  0  0  0
  9 11  4  0  0  0  0
 11 12  1  0  0  0  0
 12 13  1  0  0  0  0
  7 14  1  0  0  0  0
 14 15  1  0  0  0  0
 15 16  2  0  0  0  0
 15 17  2  0  0  0  0
 17 18  1  0  0  0  0
 15 19  1  0  0  0  0
 19 20  1  0  0  0  0
  1 21  1  0  0  0  0
  1 22  1  0  0  0  0
  1 23  1  0  0  0  0
  2 24  1  0  0  0  0
  2 25  1  0  0  0  0
  6 26  1  0  0  0  0
  6 27  1  0  0  0  0
 12 28  1  0  0  0  0
 12 29  1  0  0  0  0
 13 30  1  0  0  0  0
 13 31  1  0  0  0  0
 13 32  1  0  0  0  0
 18 33  1  0  0  0  0
 18 34  1  0  0  0  0
 18 35  1  0  0  0  0
 20 36  1  0  0  0  0
 20 37  1  0  0  0  0
 20 38  1  0  0  0  0
M  END
