 xtb: 6.7.1 (edcfbbe)
          04092505203D

 41 40  0     0  0            999 V2000
    5.3921   -0.0651   -0.7983 C   0  0  0  0  0  0  0  0  0  0  0  0
    4.4196   -0.8078    0.0975 C   0  0  0  0  0  0  0  0  0  0  0  0
    3.3720    0.0695    0.5562 O   0  0  0  0  0  0  0  0  0  0  0  0
    1.9565    0.1519   -0.1681 P   0  0  0  0  0  0  0  0  0  0  0  0
    1.9989    0.4526   -2.1092 S   0  0  0  0  0  0  0  0  0  0  0  0
    1.2391    1.2404    0.7279 O   0  0  0  0  0  0  0  0  0  0  0  0
    1.2877    2.6460    0.4189 C   0  0  0  0  0  0  0  0  0  0  0  0
    2.6872    3.2046    0.5553 C   0  0  0  0  0  0  0  0  0  0  0  0
    1.0719   -1.6402    0.4772 S   0  0  0  0  0  0  0  0  0  0  0  0
   -0.1630   -1.9317   -0.8361 C   0  0  0  0  0  0  0  0  0  0  0  0
   -1.8566   -1.9741   -0.2130 S   0  0  0  0  0  0  0  0  0  0  0  0
   -2.1055    0.1081    0.1343 P   0  0  0  0  0  0  0  0  0  0  0  0
   -1.4185    1.2868   -1.2686 S   0  0  0  0  0  0  0  0  0  0  0  0
   -1.4707    0.4264    1.5428 O   0  0  0  0  0  0  0  0  0  0  0  0
   -1.9498   -0.1326    2.7971 C   0  0  0  0  0  0  0  0  0  0  0  0
   -1.0109   -1.2096    3.3015 C   0  0  0  0  0  0  0  0  0  0  0  0
   -3.6597    0.2450    0.4406 O   0  0  0  0  0  0  0  0  0  0  0  0
   -4.6458    0.4367   -0.5901 C   0  0  0  0  0  0  0  0  0  0  0  0
   -4.7856   -0.7733   -1.4905 C   0  0  0  0  0  0  0  0  0  0  0  0
    4.8851    0.2806   -1.6967 H   0  0  0  0  0  0  0  0  0  0  0  0
    5.8043    0.7924   -0.2738 H   0  0  0  0  0  0  0  0  0  0  0  0
    6.1978   -0.7339   -1.0829 H   0  0  0  0  0  0  0  0  0  0  0  0
    4.9055   -1.1578    1.0100 H   0  0  0  0  0  0  0  0  0  0  0  0
    3.9755   -1.6578   -0.4284 H   0  0  0  0  0  0  0  0  0  0  0  0
    0.9039    2.7916   -0.5968 H   0  0  0  0  0  0  0  0  0  0  0  0
    0.5933    3.0914    1.1332 H   0  0  0  0  0  0  0  0  0  0  0  0
    3.0872    2.9769    1.5400 H   0  0  0  0  0  0  0  0  0  0  0  0
    3.3341    2.7611   -0.2009 H   0  0  0  0  0  0  0  0  0  0  0  0
    2.6597    4.2801    0.4110 H   0  0  0  0  0  0  0  0  0  0  0  0
    0.0274   -2.9139   -1.2606 H   0  0  0  0  0  0  0  0  0  0  0  0
   -0.0601   -1.1483   -1.5925 H   0  0  0  0  0  0  0  0  0  0  0  0
   -1.9742    0.7201    3.4775 H   0  0  0  0  0  0  0  0  0  0  0  0
   -2.9606   -0.5165    2.6517 H   0  0  0  0  0  0  0  0  0  0  0  0
    0.0058   -0.8274    3.3473 H   0  0  0  0  0  0  0  0  0  0  0  0
   -1.3252   -1.5108    4.2957 H   0  0  0  0  0  0  0  0  0  0  0  0
   -1.0247   -2.0774    2.6465 H   0  0  0  0  0  0  0  0  0  0  0  0
   -5.5631    0.6330   -0.0331 H   0  0  0  0  0  0  0  0  0  0  0  0
   -4.3673    1.3204   -1.1724 H   0  0  0  0  0  0  0  0  0  0  0  0
   -4.9323   -1.6727   -0.8979 H   0  0  0  0  0  0  0  0  0  0  0  0
   -5.6371   -0.6308   -2.1482 H   0  0  0  0  0  0  0  0  0  0  0  0
   -3.8899   -0.8939   -2.0974 H   0  0  0  0  0  0  0  0  0  0  0  0
  1  2  1  0  0  0  0
  2  3  1  0  0  0  0
  3  4  2  0  0  0  0
  4  5  2  0  0  0  0
  4  6  2  0  0  0  0
  6  7  1  0  0  0  0
  7  8  1  0  0  0  0
  4  9  1  0  0  0  0
  9 10  1  0  0  0  0
 10 11  1  0  0  0  0
 11 12  1  0  0  0  0
 12 13  2  0  0  0  0
 12 14  2  0  0  0  0
 14 15  1  0  0  0  0
 15 16  1  0  0  0  0
 12 17  2  0  0  0  0
 17 18  1  0  0  0  0
 18 19  1  0  0  0  0
  1 20  1  0  0  0  0
  1 21  1  0  0  0  0
  1 22  1  0  0  0  0
  2 23  1  0  0  0  0
  2 24  1  0  0  0  0
  7 25  1  0  0  0  0
  7 26  1  0  0  0  0
  8 27  1  0  0  0  0
  8 28  1  0  0  0  0
  8 29  1  0  0  0  0
 10 30  1  0  0  0  0
 10 31  1  0  0  0  0
 15 32  1  0  0  0  0
 15 33  1  0  0  0  0
 16 34  1  0  0  0  0
 16 35  1  0  0  0  0
 16 36  1  0  0  0  0
 18 37  1  0  0  0  0
 18 38  1  0  0  0  0
 19 39  1  0  0  0  0
 19 40  1  0  0  0  0
 19 41  1  0  0  0  0
M  END
