 xtb: 6.7.1 (edcfbbe)
          04092507313D

 38 37  0     0  0            999 V2000
    3.3669   -3.7748   -0.6261 C   0  0  0  0  0  0  0  0  0  0  0  0
    4.0757   -2.4470   -0.8400 C   0  0  0  0  0  0  0  0  0  0  0  0
    3.2383   -1.5404   -1.5847 O   0  0  0  0  0  0  0  0  0  0  0  0
    2.3980   -0.7737   -0.9300 C   0  0  0  0  0  0  0  0  0  0  0  0
    2.2901   -0.7332    0.2796 O   0  0  0  0  0  0  0  0  0  0  0  0
    1.5771    0.0947   -1.8603 C   0  0  0  0  0  0  0  0  0  0  0  0
    0.3287    0.5658   -1.1302 C   0  0  0  0  0  0  0  0  0  0  0  0
   -0.2052    1.3281   -1.7055 H   0  0  0  0  0  0  0  0  0  0  0  0
    0.6599    1.1524    0.2309 C   0  0  0  0  0  0  0  0  0  0  0  0
    0.0278    0.8683    1.2303 O   0  0  0  0  0  0  0  0  0  0  0  0
    1.5956    2.0611    0.1561 O   0  0  0  0  0  0  0  0  0  0  0  0
    1.9913    2.7398    1.3671 C   0  0  0  0  0  0  0  0  0  0  0  0
    3.1681    2.0294    2.0145 C   0  0  0  0  0  0  0  0  0  0  0  0
   -0.8158   -0.8300   -0.8555 S   0  0  0  0  0  0  0  0  0  0  0  0
   -2.2809    0.1679    0.3091 P   0  0  0  0  0  0  0  0  0  0  0  0
   -2.5094    2.0896    0.0126 S   0  0  0  0  0  0  0  0  0  0  0  0
   -3.5831   -0.6616   -0.1578 O   0  0  0  0  0  0  0  0  0  0  0  0
   -4.1181   -0.5326   -1.4772 C   0  0  0  0  0  0  0  0  0  0  0  0
   -2.2794   -0.2844    1.8242 O   0  0  0  0  0  0  0  0  0  0  0  0
   -1.8949   -1.6068    2.2391 C   0  0  0  0  0  0  0  0  0  0  0  0
    3.0788   -4.2032   -1.5817 H   0  0  0  0  0  0  0  0  0  0  0  0
    4.0330   -4.4594   -0.1115 H   0  0  0  0  0  0  0  0  0  0  0  0
    2.4740   -3.6289   -0.0220 H   0  0  0  0  0  0  0  0  0  0  0  0
    4.9667   -2.5656   -1.4564 H   0  0  0  0  0  0  0  0  0  0  0  0
    4.3312   -1.9837    0.1171 H   0  0  0  0  0  0  0  0  0  0  0  0
    1.3214   -0.4671   -2.7576 H   0  0  0  0  0  0  0  0  0  0  0  0
    2.1802    0.9605   -2.1416 H   0  0  0  0  0  0  0  0  0  0  0  0
    2.2568    3.7458    1.0409 H   0  0  0  0  0  0  0  0  0  0  0  0
    1.1308    2.7734    2.0413 H   0  0  0  0  0  0  0  0  0  0  0  0
    4.0264    2.0404    1.3488 H   0  0  0  0  0  0  0  0  0  0  0  0
    3.4241    2.5298    2.9423 H   0  0  0  0  0  0  0  0  0  0  0  0
    2.9021    0.9957    2.2262 H   0  0  0  0  0  0  0  0  0  0  0  0
   -4.2200    0.5228   -1.7361 H   0  0  0  0  0  0  0  0  0  0  0  0
   -5.0930   -1.0119   -1.4463 H   0  0  0  0  0  0  0  0  0  0  0  0
   -3.4644   -1.0312   -2.1929 H   0  0  0  0  0  0  0  0  0  0  0  0
   -2.1850   -1.6711    3.2845 H   0  0  0  0  0  0  0  0  0  0  0  0
   -0.8147   -1.7158    2.1354 H   0  0  0  0  0  0  0  0  0  0  0  0
   -2.4138   -2.3572    1.6441 H   0  0  0  0  0  0  0  0  0  0  0  0
  1  2  1  0  0  0  0
  2  3  1  0  0  0  0
  3  4  4  0  0  0  0
  4  5  2  0  0  0  0
  4  6  1  0  0  0  0
  6  7  1  0  0  0  0
  7  8  1  0  0  0  0
  7  9  1  0  0  0  0
  9 10  2  0  0  0  0
  9 11  4  0  0  0  0
 11 12  1  0  0  0  0
 12 13  1  0  0  0  0
  7 14  1  0  0  0  0
 14 15  1  0  0  0  0
 15 16  2  0  0  0  0
 15 17  1  0  0  0  0
 17 18  1  0  0  0  0
 15 19  2  0  0  0  0
 19 20  1  0  0  0  0
  1 21  1  0  0  0  0
  1 22  1  0  0  0  0
  1 23  1  0  0  0  0
  2 24  1  0  0  0  0
  2 25  1  0  0  0  0
  6 26  1  0  0  0  0
  6 27  1  0  0  0  0
 12 28  1  0  0  0  0
 12 29  1  0  0  0  0
 13 30  1  0  0  0  0
 13 31  1  0  0  0  0
 13 32  1  0  0  0  0
 18 33  1  0  0  0  0
 18 34  1  0  0  0  0
 18 35  1  0  0  0  0
 20 36  1  0  0  0  0
 20 37  1  0  0  0  0
 20 38  1  0  0  0  0
M  END
