 xtb: 6.7.1 (edcfbbe)
          04092507313D

 38 37  0     0  0            999 V2000
    3.0715   -3.3051    0.4309 C   0  0  0  0  0  0  0  0  0  0  0  0
    2.8333   -1.8737    0.8831 C   0  0  0  0  0  0  0  0  0  0  0  0
    2.6869   -0.9878   -0.2450 O   0  0  0  0  0  0  0  0  0  0  0  0
    1.5267   -0.9148   -0.8464 C   0  0  0  0  0  0  0  0  0  0  0  0
    0.5404   -1.5544   -0.5181 O   0  0  0  0  0  0  0  0  0  0  0  0
    1.5230    0.0731   -1.9887 C   0  0  0  0  0  0  0  0  0  0  0  0
    0.3378    1.0257   -1.8484 C   0  0  0  0  0  0  0  0  0  0  0  0
    0.2968    1.7030   -2.7062 H   0  0  0  0  0  0  0  0  0  0  0  0
    0.3666    1.8680   -0.5837 C   0  0  0  0  0  0  0  0  0  0  0  0
   -0.6344    2.3557   -0.0982 O   0  0  0  0  0  0  0  0  0  0  0  0
    1.5763    2.0131   -0.1118 O   0  0  0  0  0  0  0  0  0  0  0  0
    1.7471    2.7749    1.1026 C   0  0  0  0  0  0  0  0  0  0  0  0
    3.2324    2.9924    1.3064 C   0  0  0  0  0  0  0  0  0  0  0  0
   -1.2807    0.1644   -1.9016 S   0  0  0  0  0  0  0  0  0  0  0  0
   -1.6335   -0.3223    0.1227 P   0  0  0  0  0  0  0  0  0  0  0  0
   -0.5290   -0.0960    1.7430 S   0  0  0  0  0  0  0  0  0  0  0  0
   -2.9698    0.5560    0.1926 O   0  0  0  0  0  0  0  0  0  0  0  0
   -3.7636    0.6435    1.3780 C   0  0  0  0  0  0  0  0  0  0  0  0
   -2.3070   -1.7723    0.0569 O   0  0  0  0  0  0  0  0  0  0  0  0
   -1.6917   -3.0086    0.4163 C   0  0  0  0  0  0  0  0  0  0  0  0
    3.2426   -3.9295    1.3014 H   0  0  0  0  0  0  0  0  0  0  0  0
    2.2028   -3.6802   -0.1052 H   0  0  0  0  0  0  0  0  0  0  0  0
    3.9396   -3.3512   -0.2209 H   0  0  0  0  0  0  0  0  0  0  0  0
    3.6939   -1.4791    1.4224 H   0  0  0  0  0  0  0  0  0  0  0  0
    1.9356   -1.7982    1.5042 H   0  0  0  0  0  0  0  0  0  0  0  0
    1.4117   -0.4792   -2.9231 H   0  0  0  0  0  0  0  0  0  0  0  0
    2.4604    0.6274   -1.9862 H   0  0  0  0  0  0  0  0  0  0  0  0
    1.1982    3.7156    0.9993 H   0  0  0  0  0  0  0  0  0  0  0  0
    1.2991    2.2008    1.9207 H   0  0  0  0  0  0  0  0  0  0  0  0
    3.7406    2.0348    1.3645 H   0  0  0  0  0  0  0  0  0  0  0  0
    3.6446    3.5630    0.4797 H   0  0  0  0  0  0  0  0  0  0  0  0
    3.3873    3.5369    2.2315 H   0  0  0  0  0  0  0  0  0  0  0  0
   -4.4185    1.4982    1.2299 H   0  0  0  0  0  0  0  0  0  0  0  0
   -3.1237    0.8026    2.2490 H   0  0  0  0  0  0  0  0  0  0  0  0
   -4.3419   -0.2716    1.5050 H   0  0  0  0  0  0  0  0  0  0  0  0
   -1.1372   -3.4016   -0.4331 H   0  0  0  0  0  0  0  0  0  0  0  0
   -2.5072   -3.6732    0.6918 H   0  0  0  0  0  0  0  0  0  0  0  0
   -1.0157   -2.8580    1.2591 H   0  0  0  0  0  0  0  0  0  0  0  0
  1  2  1  0  0  0  0
  2  3  1  0  0  0  0
  3  4  4  0  0  0  0
  4  5  2  0  0  0  0
  4  6  1  0  0  0  0
  6  7  1  0  0  0  0
  7  8  1  0  0  0  0
  7  9  1  0  0  0  0
  9 10  2  0  0  0  0
  9 11  4  0  0  0  0
 11 12  1  0  0  0  0
 12 13  1  0  0  0  0
  7 14  1  0  0  0  0
 14 15  1  0  0  0  0
 15 16  2  0  0  0  0
 15 17  1  0  0  0  0
 17 18  1  0  0  0  0
 15 19  2  0  0  0  0
 19 20  1  0  0  0  0
  1 21  1  0  0  0  0
  1 22  1  0  0  0  0
  1 23  1  0  0  0  0
  2 24  1  0  0  0  0
  2 25  1  0  0  0  0
  6 26  1  0  0  0  0
  6 27  1  0  0  0  0
 12 28  1  0  0  0  0
 12 29  1  0  0  0  0
 13 30  1  0  0  0  0
 13 31  1  0  0  0  0
 13 32  1  0  0  0  0
 18 33  1  0  0  0  0
 18 34  1  0  0  0  0
 18 35  1  0  0  0  0
 20 36  1  0  0  0  0
 20 37  1  0  0  0  0
 20 38  1  0  0  0  0
M  END
