 xtb: 6.7.1 (edcfbbe)
          04092505213D

 41 40  0     0  0            999 V2000
    1.2327    0.5156    2.8544 C   0  0  0  0  0  0  0  0  0  0  0  0
    2.7182    0.3010    2.6479 C   0  0  0  0  0  0  0  0  0  0  0  0
    3.1243    0.6050    1.3025 O   0  0  0  0  0  0  0  0  0  0  0  0
    2.7262   -0.3109    0.0646 P   0  0  0  0  0  0  0  0  0  0  0  0
    2.7558   -2.2419    0.4249 S   0  0  0  0  0  0  0  0  0  0  0  0
    3.7184    0.2079   -1.0538 O   0  0  0  0  0  0  0  0  0  0  0  0
    5.0406   -0.3440   -1.2293 C   0  0  0  0  0  0  0  0  0  0  0  0
    5.9502   -0.0390   -0.0574 C   0  0  0  0  0  0  0  0  0  0  0  0
    0.9469    0.5163   -0.7431 S   0  0  0  0  0  0  0  0  0  0  0  0
   -0.0870   -0.9814   -0.7905 C   0  0  0  0  0  0  0  0  0  0  0  0
   -1.4030   -0.9663    0.4451 S   0  0  0  0  0  0  0  0  0  0  0  0
   -2.6677    0.3885   -0.6136 P   0  0  0  0  0  0  0  0  0  0  0  0
   -2.8234    0.0764   -2.5371 S   0  0  0  0  0  0  0  0  0  0  0  0
   -2.0804    1.8186   -0.3104 O   0  0  0  0  0  0  0  0  0  0  0  0
   -1.8472    2.3407    1.0205 C   0  0  0  0  0  0  0  0  0  0  0  0
   -3.0227    3.1734    1.4889 C   0  0  0  0  0  0  0  0  0  0  0  0
   -4.0256    0.3716    0.2112 O   0  0  0  0  0  0  0  0  0  0  0  0
   -5.0777   -0.5772   -0.0448 C   0  0  0  0  0  0  0  0  0  0  0  0
   -4.6652   -1.9980    0.2803 C   0  0  0  0  0  0  0  0  0  0  0  0
    0.6649   -0.2134    2.2760 H   0  0  0  0  0  0  0  0  0  0  0  0
    0.9932    0.3881    3.9051 H   0  0  0  0  0  0  0  0  0  0  0  0
    0.9517    1.5170    2.5383 H   0  0  0  0  0  0  0  0  0  0  0  0
    2.9913   -0.7364    2.8670 H   0  0  0  0  0  0  0  0  0  0  0  0
    3.3121    0.9800    3.2613 H   0  0  0  0  0  0  0  0  0  0  0  0
    4.9462   -1.4249   -1.3747 H   0  0  0  0  0  0  0  0  0  0  0  0
    5.3949    0.1235   -2.1491 H   0  0  0  0  0  0  0  0  0  0  0  0
    5.6047   -0.5671    0.8301 H   0  0  0  0  0  0  0  0  0  0  0  0
    6.9583   -0.3666   -0.2920 H   0  0  0  0  0  0  0  0  0  0  0  0
    5.9539    1.0284    0.1466 H   0  0  0  0  0  0  0  0  0  0  0  0
    0.5368   -1.8545   -0.5870 H   0  0  0  0  0  0  0  0  0  0  0  0
   -0.5422   -1.0396   -1.7797 H   0  0  0  0  0  0  0  0  0  0  0  0
   -1.6593    1.5054    1.7010 H   0  0  0  0  0  0  0  0  0  0  0  0
   -0.9443    2.9453    0.9140 H   0  0  0  0  0  0  0  0  0  0  0  0
   -3.2273    3.9647    0.7729 H   0  0  0  0  0  0  0  0  0  0  0  0
   -3.9084    2.5521    1.5881 H   0  0  0  0  0  0  0  0  0  0  0  0
   -2.7833    3.6139    2.4518 H   0  0  0  0  0  0  0  0  0  0  0  0
   -5.8933   -0.2387    0.5957 H   0  0  0  0  0  0  0  0  0  0  0  0
   -5.3695   -0.4919   -1.0959 H   0  0  0  0  0  0  0  0  0  0  0  0
   -5.5311   -2.6479    0.2045 H   0  0  0  0  0  0  0  0  0  0  0  0
   -3.9083   -2.3382   -0.4247 H   0  0  0  0  0  0  0  0  0  0  0  0
   -4.2576   -2.0542    1.2866 H   0  0  0  0  0  0  0  0  0  0  0  0
  1  2  1  0  0  0  0
  2  3  1  0  0  0  0
  3  4  2  0  0  0  0
  4  5  2  0  0  0  0
  4  6  2  0  0  0  0
  6  7  1  0  0  0  0
  7  8  1  0  0  0  0
  4  9  1  0  0  0  0
  9 10  1  0  0  0  0
 10 11  1  0  0  0  0
 11 12  1  0  0  0  0
 12 13  2  0  0  0  0
 12 14  2  0  0  0  0
 14 15  1  0  0  0  0
 15 16  1  0  0  0  0
 12 17  2  0  0  0  0
 17 18  1  0  0  0  0
 18 19  1  0  0  0  0
  1 20  1  0  0  0  0
  1 21  1  0  0  0  0
  1 22  1  0  0  0  0
  2 23  1  0  0  0  0
  2 24  1  0  0  0  0
  7 25  1  0  0  0  0
  7 26  1  0  0  0  0
  8 27  1  0  0  0  0
  8 28  1  0  0  0  0
  8 29  1  0  0  0  0
 10 30  1  0  0  0  0
 10 31  1  0  0  0  0
 15 32  1  0  0  0  0
 15 33  1  0  0  0  0
 16 34  1  0  0  0  0
 16 35  1  0  0  0  0
 16 36  1  0  0  0  0
 18 37  1  0  0  0  0
 18 38  1  0  0  0  0
 19 39  1  0  0  0  0
 19 40  1  0  0  0  0
 19 41  1  0  0  0  0
M  END
