 xtb: 6.7.1 (edcfbbe)
          04092505213D

 41 40  0     0  0            999 V2000
    4.5215   -2.0988    0.0353 C   0  0  0  0  0  0  0  0  0  0  0  0
    4.2454   -0.7181    0.5962 C   0  0  0  0  0  0  0  0  0  0  0  0
    3.7282    0.1641   -0.4331 O   0  0  0  0  0  0  0  0  0  0  0  0
    2.1870    0.5222   -0.5799 P   0  0  0  0  0  0  0  0  0  0  0  0
    1.9557    1.8098   -2.0312 S   0  0  0  0  0  0  0  0  0  0  0  0
    1.7223    0.9823    0.8843 O   0  0  0  0  0  0  0  0  0  0  0  0
    1.9799    2.3263    1.3372 C   0  0  0  0  0  0  0  0  0  0  0  0
    1.3351    2.4876    2.6977 C   0  0  0  0  0  0  0  0  0  0  0  0
    1.1870   -1.3175   -0.7068 S   0  0  0  0  0  0  0  0  0  0  0  0
   -0.1811   -0.8691   -1.8357 C   0  0  0  0  0  0  0  0  0  0  0  0
   -1.7865   -1.4252   -1.2444 S   0  0  0  0  0  0  0  0  0  0  0  0
   -2.2646    0.1362    0.1358 P   0  0  0  0  0  0  0  0  0  0  0  0
   -1.2291    1.7812   -0.1254 S   0  0  0  0  0  0  0  0  0  0  0  0
   -2.2136   -0.4857    1.5995 O   0  0  0  0  0  0  0  0  0  0  0  0
   -1.0002   -0.8469    2.2869 C   0  0  0  0  0  0  0  0  0  0  0  0
   -0.7587   -2.3417    2.1995 C   0  0  0  0  0  0  0  0  0  0  0  0
   -3.8037    0.4009   -0.0368 O   0  0  0  0  0  0  0  0  0  0  0  0
   -4.8643   -0.4492    0.4704 C   0  0  0  0  0  0  0  0  0  0  0  0
   -4.8291   -1.8394   -0.1259 C   0  0  0  0  0  0  0  0  0  0  0  0
    5.0134   -2.6956    0.7970 H   0  0  0  0  0  0  0  0  0  0  0  0
    3.5952   -2.5868   -0.2576 H   0  0  0  0  0  0  0  0  0  0  0  0
    5.1694   -2.0216   -0.8333 H   0  0  0  0  0  0  0  0  0  0  0  0
    5.1678   -0.2362    0.9261 H   0  0  0  0  0  0  0  0  0  0  0  0
    3.5321   -0.7600    1.4231 H   0  0  0  0  0  0  0  0  0  0  0  0
    3.0627    2.4801    1.3776 H   0  0  0  0  0  0  0  0  0  0  0  0
    1.5497    3.0207    0.6077 H   0  0  0  0  0  0  0  0  0  0  0  0
    1.5467    3.4831    3.0736 H   0  0  0  0  0  0  0  0  0  0  0  0
    0.2592    2.3628    2.6071 H   0  0  0  0  0  0  0  0  0  0  0  0
    1.7260    1.7467    3.3890 H   0  0  0  0  0  0  0  0  0  0  0  0
   -0.0139   -1.3768   -2.7821 H   0  0  0  0  0  0  0  0  0  0  0  0
   -0.1797    0.2167   -1.9639 H   0  0  0  0  0  0  0  0  0  0  0  0
   -0.1635   -0.2781    1.8710 H   0  0  0  0  0  0  0  0  0  0  0  0
   -1.1659   -0.5341    3.3200 H   0  0  0  0  0  0  0  0  0  0  0  0
   -0.5677   -2.6446    1.1727 H   0  0  0  0  0  0  0  0  0  0  0  0
    0.1066   -2.5946    2.8033 H   0  0  0  0  0  0  0  0  0  0  0  0
   -1.6254   -2.8791    2.5736 H   0  0  0  0  0  0  0  0  0  0  0  0
   -4.7792   -0.4847    1.5577 H   0  0  0  0  0  0  0  0  0  0  0  0
   -5.7686    0.0900    0.1846 H   0  0  0  0  0  0  0  0  0  0  0  0
   -4.8499   -1.7888   -1.2114 H   0  0  0  0  0  0  0  0  0  0  0  0
   -3.9245   -2.3611    0.1805 H   0  0  0  0  0  0  0  0  0  0  0  0
   -5.6935   -2.3959    0.2229 H   0  0  0  0  0  0  0  0  0  0  0  0
  1  2  1  0  0  0  0
  2  3  1  0  0  0  0
  3  4  2  0  0  0  0
  4  5  2  0  0  0  0
  4  6  1  0  0  0  0
  6  7  1  0  0  0  0
  7  8  1  0  0  0  0
  4  9  1  0  0  0  0
  9 10  1  0  0  0  0
 10 11  1  0  0  0  0
 11 12  1  0  0  0  0
 12 13  2  0  0  0  0
 12 14  2  0  0  0  0
 14 15  1  0  0  0  0
 15 16  1  0  0  0  0
 12 17  2  0  0  0  0
 17 18  1  0  0  0  0
 18 19  1  0  0  0  0
  1 20  1  0  0  0  0
  1 21  1  0  0  0  0
  1 22  1  0  0  0  0
  2 23  1  0  0  0  0
  2 24  1  0  0  0  0
  7 25  1  0  0  0  0
  7 26  1  0  0  0  0
  8 27  1  0  0  0  0
  8 28  1  0  0  0  0
  8 29  1  0  0  0  0
 10 30  1  0  0  0  0
 10 31  1  0  0  0  0
 15 32  1  0  0  0  0
 15 33  1  0  0  0  0
 16 34  1  0  0  0  0
 16 35  1  0  0  0  0
 16 36  1  0  0  0  0
 18 37  1  0  0  0  0
 18 38  1  0  0  0  0
 19 39  1  0  0  0  0
 19 40  1  0  0  0  0
 19 41  1  0  0  0  0
M  END
