 xtb: 6.7.1 (edcfbbe)
          04092505203D

 41 40  0     0  0            999 V2000
    1.5359    2.5115    1.5793 C   0  0  0  0  0  0  0  0  0  0  0  0
    1.5052    2.2900    0.0793 C   0  0  0  0  0  0  0  0  0  0  0  0
    1.1609    0.9320   -0.2595 O   0  0  0  0  0  0  0  0  0  0  0  0
    2.1893   -0.2417    0.0557 P   0  0  0  0  0  0  0  0  0  0  0  0
    4.0789    0.2693    0.0757 S   0  0  0  0  0  0  0  0  0  0  0  0
    1.7129   -1.2161   -1.1004 O   0  0  0  0  0  0  0  0  0  0  0  0
    2.1883   -2.5712   -1.2149 C   0  0  0  0  0  0  0  0  0  0  0  0
    3.4341   -2.6479   -2.0750 C   0  0  0  0  0  0  0  0  0  0  0  0
    1.4939   -1.1490    1.8390 S   0  0  0  0  0  0  0  0  0  0  0  0
   -0.2569   -1.4099    1.4047 C   0  0  0  0  0  0  0  0  0  0  0  0
   -1.2846    0.0768    1.5243 S   0  0  0  0  0  0  0  0  0  0  0  0
   -1.9036    0.2975   -0.5091 P   0  0  0  0  0  0  0  0  0  0  0  0
   -1.2927   -1.0867   -1.7541 S   0  0  0  0  0  0  0  0  0  0  0  0
   -1.5190    1.7650   -0.9509 O   0  0  0  0  0  0  0  0  0  0  0  0
   -2.3082    2.9444   -0.6559 C   0  0  0  0  0  0  0  0  0  0  0  0
   -2.3787    3.2403    0.8272 C   0  0  0  0  0  0  0  0  0  0  0  0
   -3.4931    0.4180   -0.4212 O   0  0  0  0  0  0  0  0  0  0  0  0
   -4.3615   -0.7247   -0.4715 C   0  0  0  0  0  0  0  0  0  0  0  0
   -4.1983   -1.6336    0.7300 C   0  0  0  0  0  0  0  0  0  0  0  0
    2.3468    1.9311    2.0196 H   0  0  0  0  0  0  0  0  0  0  0  0
    1.7083    3.5638    1.7818 H   0  0  0  0  0  0  0  0  0  0  0  0
    0.5985    2.2012    2.0358 H   0  0  0  0  0  0  0  0  0  0  0  0
    2.4814    2.5179   -0.3603 H   0  0  0  0  0  0  0  0  0  0  0  0
    0.7329    2.8837   -0.4105 H   0  0  0  0  0  0  0  0  0  0  0  0
    2.3791   -2.9745   -0.2141 H   0  0  0  0  0  0  0  0  0  0  0  0
    1.3545   -3.1071   -1.6758 H   0  0  0  0  0  0  0  0  0  0  0  0
    3.2377   -2.2148   -3.0520 H   0  0  0  0  0  0  0  0  0  0  0  0
    4.2508   -2.1012   -1.6083 H   0  0  0  0  0  0  0  0  0  0  0  0
    3.7225   -3.6875   -2.1926 H   0  0  0  0  0  0  0  0  0  0  0  0
   -0.6190   -2.1299    2.1335 H   0  0  0  0  0  0  0  0  0  0  0  0
   -0.3301   -1.7954    0.3838 H   0  0  0  0  0  0  0  0  0  0  0  0
   -1.7927    3.7357   -1.2029 H   0  0  0  0  0  0  0  0  0  0  0  0
   -3.3072    2.8005   -1.0716 H   0  0  0  0  0  0  0  0  0  0  0  0
   -1.3838    3.3824    1.2394 H   0  0  0  0  0  0  0  0  0  0  0  0
   -2.9589    4.1453    0.9787 H   0  0  0  0  0  0  0  0  0  0  0  0
   -2.8624    2.4176    1.3512 H   0  0  0  0  0  0  0  0  0  0  0  0
   -5.3606   -0.2883   -0.5115 H   0  0  0  0  0  0  0  0  0  0  0  0
   -4.1574   -1.2729   -1.3966 H   0  0  0  0  0  0  0  0  0  0  0  0
   -3.2268   -2.1241    0.6949 H   0  0  0  0  0  0  0  0  0  0  0  0
   -4.2766   -1.0639    1.6523 H   0  0  0  0  0  0  0  0  0  0  0  0
   -4.9732   -2.3932    0.7090 H   0  0  0  0  0  0  0  0  0  0  0  0
  1  2  1  0  0  0  0
  2  3  1  0  0  0  0
  3  4  1  0  0  0  0
  4  5  2  0  0  0  0
  4  6  2  0  0  0  0
  6  7  1  0  0  0  0
  7  8  1  0  0  0  0
  4  9  1  0  0  0  0
  9 10  1  0  0  0  0
 10 11  1  0  0  0  0
 11 12  1  0  0  0  0
 12 13  2  0  0  0  0
 12 14  2  0  0  0  0
 14 15  1  0  0  0  0
 15 16  1  0  0  0  0
 12 17  1  0  0  0  0
 17 18  1  0  0  0  0
 18 19  1  0  0  0  0
  1 20  1  0  0  0  0
  1 21  1  0  0  0  0
  1 22  1  0  0  0  0
  2 23  1  0  0  0  0
  2 24  1  0  0  0  0
  7 25  1  0  0  0  0
  7 26  1  0  0  0  0
  8 27  1  0  0  0  0
  8 28  1  0  0  0  0
  8 29  1  0  0  0  0
 10 30  1  0  0  0  0
 10 31  1  0  0  0  0
 15 32  1  0  0  0  0
 15 33  1  0  0  0  0
 16 34  1  0  0  0  0
 16 35  1  0  0  0  0
 16 36  1  0  0  0  0
 18 37  1  0  0  0  0
 18 38  1  0  0  0  0
 19 39  1  0  0  0  0
 19 40  1  0  0  0  0
 19 41  1  0  0  0  0
M  END
