 xtb: 6.7.1 (edcfbbe)
          04092505203D

 41 40  0     0  0            999 V2000
    5.9114   -0.2421   -0.4280 C   0  0  0  0  0  0  0  0  0  0  0  0
    4.4924   -0.5812   -0.8364 C   0  0  0  0  0  0  0  0  0  0  0  0
    3.6035    0.3074   -0.1289 O   0  0  0  0  0  0  0  0  0  0  0  0
    2.0874    0.4907   -0.5817 P   0  0  0  0  0  0  0  0  0  0  0  0
    1.8511    0.9189   -2.4736 S   0  0  0  0  0  0  0  0  0  0  0  0
    1.6160    1.6066    0.4203 O   0  0  0  0  0  0  0  0  0  0  0  0
    1.8588    1.5113    1.8496 C   0  0  0  0  0  0  0  0  0  0  0  0
    0.8938    2.4461    2.5466 C   0  0  0  0  0  0  0  0  0  0  0  0
    1.2478   -1.3609    0.0564 S   0  0  0  0  0  0  0  0  0  0  0  0
    0.0455   -1.6804   -1.2741 C   0  0  0  0  0  0  0  0  0  0  0  0
   -1.6162   -1.9784   -0.6383 S   0  0  0  0  0  0  0  0  0  0  0  0
   -1.9529   -0.0525    0.2026 P   0  0  0  0  0  0  0  0  0  0  0  0
   -1.3295    1.4573   -0.8850 S   0  0  0  0  0  0  0  0  0  0  0  0
   -1.3243   -0.0314    1.6435 O   0  0  0  0  0  0  0  0  0  0  0  0
   -1.2896   -1.1278    2.5970 C   0  0  0  0  0  0  0  0  0  0  0  0
   -2.6543   -1.7172    2.8739 C   0  0  0  0  0  0  0  0  0  0  0  0
   -3.5127   -0.0538    0.4886 O   0  0  0  0  0  0  0  0  0  0  0  0
   -4.4710    0.0711   -0.5803 C   0  0  0  0  0  0  0  0  0  0  0  0
   -5.7918    0.4993    0.0265 C   0  0  0  0  0  0  0  0  0  0  0  0
    6.5972   -0.9047   -0.9453 H   0  0  0  0  0  0  0  0  0  0  0  0
    6.1392    0.7868   -0.6921 H   0  0  0  0  0  0  0  0  0  0  0  0
    6.0294   -0.3659    0.6444 H   0  0  0  0  0  0  0  0  0  0  0  0
    4.2323   -1.6080   -0.5651 H   0  0  0  0  0  0  0  0  0  0  0  0
    4.3376   -0.4425   -1.9115 H   0  0  0  0  0  0  0  0  0  0  0  0
    1.7073    0.4721    2.1581 H   0  0  0  0  0  0  0  0  0  0  0  0
    2.8979    1.7947    2.0262 H   0  0  0  0  0  0  0  0  0  0  0  0
   -0.1307    2.1521    2.3310 H   0  0  0  0  0  0  0  0  0  0  0  0
    1.0666    2.4049    3.6171 H   0  0  0  0  0  0  0  0  0  0  0  0
    1.0414    3.4627    2.1932 H   0  0  0  0  0  0  0  0  0  0  0  0
    0.3423   -2.5880   -1.7933 H   0  0  0  0  0  0  0  0  0  0  0  0
    0.0453   -0.8199   -1.9496 H   0  0  0  0  0  0  0  0  0  0  0  0
   -0.6028   -1.8871    2.2117 H   0  0  0  0  0  0  0  0  0  0  0  0
   -0.8643   -0.6626    3.4876 H   0  0  0  0  0  0  0  0  0  0  0  0
   -3.3493   -0.9356    3.1689 H   0  0  0  0  0  0  0  0  0  0  0  0
   -3.0395   -2.2168    1.9876 H   0  0  0  0  0  0  0  0  0  0  0  0
   -2.5658   -2.4425    3.6770 H   0  0  0  0  0  0  0  0  0  0  0  0
   -4.0997    0.8101   -1.2987 H   0  0  0  0  0  0  0  0  0  0  0  0
   -4.5544   -0.8993   -1.0768 H   0  0  0  0  0  0  0  0  0  0  0  0
   -6.5318    0.5919   -0.7615 H   0  0  0  0  0  0  0  0  0  0  0  0
   -6.1252   -0.2394    0.7492 H   0  0  0  0  0  0  0  0  0  0  0  0
   -5.6790    1.4573    0.5263 H   0  0  0  0  0  0  0  0  0  0  0  0
  1  2  1  0  0  0  0
  2  3  1  0  0  0  0
  3  4  2  0  0  0  0
  4  5  2  0  0  0  0
  4  6  2  0  0  0  0
  6  7  1  0  0  0  0
  7  8  1  0  0  0  0
  4  9  1  0  0  0  0
  9 10  1  0  0  0  0
 10 11  1  0  0  0  0
 11 12  1  0  0  0  0
 12 13  2  0  0  0  0
 12 14  2  0  0  0  0
 14 15  1  0  0  0  0
 15 16  1  0  0  0  0
 12 17  2  0  0  0  0
 17 18  1  0  0  0  0
 18 19  1  0  0  0  0
  1 20  1  0  0  0  0
  1 21  1  0  0  0  0
  1 22  1  0  0  0  0
  2 23  1  0  0  0  0
  2 24  1  0  0  0  0
  7 25  1  0  0  0  0
  7 26  1  0  0  0  0
  8 27  1  0  0  0  0
  8 28  1  0  0  0  0
  8 29  1  0  0  0  0
 10 30  1  0  0  0  0
 10 31  1  0  0  0  0
 15 32  1  0  0  0  0
 15 33  1  0  0  0  0
 16 34  1  0  0  0  0
 16 35  1  0  0  0  0
 16 36  1  0  0  0  0
 18 37  1  0  0  0  0
 18 38  1  0  0  0  0
 19 39  1  0  0  0  0
 19 40  1  0  0  0  0
 19 41  1  0  0  0  0
M  END
