 xtb: 6.7.1 (edcfbbe)
          04092507313D

 38 37  0     0  0            999 V2000
    0.6423   -3.7806   -1.6606 C   0  0  0  0  0  0  0  0  0  0  0  0
    1.7734   -3.5702   -0.6665 C   0  0  0  0  0  0  0  0  0  0  0  0
    1.7515   -2.2269   -0.1488 O   0  0  0  0  0  0  0  0  0  0  0  0
    2.3670   -1.2796   -0.8279 C   0  0  0  0  0  0  0  0  0  0  0  0
    3.0149   -1.4533   -1.8341 O   0  0  0  0  0  0  0  0  0  0  0  0
    2.1316    0.0775   -0.1885 C   0  0  0  0  0  0  0  0  0  0  0  0
    1.0285    0.8079   -0.9636 C   0  0  0  0  0  0  0  0  0  0  0  0
    1.3982    1.1057   -1.9480 H   0  0  0  0  0  0  0  0  0  0  0  0
    0.5511    2.0258   -0.1919 C   0  0  0  0  0  0  0  0  0  0  0  0
   -0.5932    2.1266    0.2046 O   0  0  0  0  0  0  0  0  0  0  0  0
    1.5023    2.8918    0.0020 O   0  0  0  0  0  0  0  0  0  0  0  0
    1.1999    4.0868    0.7589 C   0  0  0  0  0  0  0  0  0  0  0  0
    0.5814    5.1513   -0.1313 C   0  0  0  0  0  0  0  0  0  0  0  0
   -0.4294   -0.2311   -1.2998 S   0  0  0  0  0  0  0  0  0  0  0  0
   -1.3221   -0.2942    0.6140 P   0  0  0  0  0  0  0  0  0  0  0  0
   -0.4104   -0.0286    2.3264 S   0  0  0  0  0  0  0  0  0  0  0  0
   -2.7227    0.4722    0.6002 O   0  0  0  0  0  0  0  0  0  0  0  0
   -3.5491    0.5180   -0.5742 C   0  0  0  0  0  0  0  0  0  0  0  0
   -1.7453   -1.8473    0.4057 O   0  0  0  0  0  0  0  0  0  0  0  0
   -2.4120   -2.5479    1.4575 C   0  0  0  0  0  0  0  0  0  0  0  0
    0.7970   -3.1600   -2.5402 H   0  0  0  0  0  0  0  0  0  0  0  0
    0.6133   -4.8231   -1.9587 H   0  0  0  0  0  0  0  0  0  0  0  0
   -0.3063   -3.5058   -1.2058 H   0  0  0  0  0  0  0  0  0  0  0  0
    2.7449   -3.7447   -1.1377 H   0  0  0  0  0  0  0  0  0  0  0  0
    1.6554   -4.2029    0.2133 H   0  0  0  0  0  0  0  0  0  0  0  0
    3.0439    0.6718   -0.2361 H   0  0  0  0  0  0  0  0  0  0  0  0
    1.8311   -0.0735    0.8500 H   0  0  0  0  0  0  0  0  0  0  0  0
    0.5258    3.8168    1.5765 H   0  0  0  0  0  0  0  0  0  0  0  0
    2.1666    4.4028    1.1498 H   0  0  0  0  0  0  0  0  0  0  0  0
   -0.3827    4.8150   -0.5060 H   0  0  0  0  0  0  0  0  0  0  0  0
    0.4358    6.0574    0.4473 H   0  0  0  0  0  0  0  0  0  0  0  0
    1.2363    5.3639   -0.9716 H   0  0  0  0  0  0  0  0  0  0  0  0
   -3.1929    1.3107   -1.2311 H   0  0  0  0  0  0  0  0  0  0  0  0
   -4.5514    0.7403   -0.2162 H   0  0  0  0  0  0  0  0  0  0  0  0
   -3.5263   -0.4383   -1.0986 H   0  0  0  0  0  0  0  0  0  0  0  0
   -3.3514   -2.0551    1.7130 H   0  0  0  0  0  0  0  0  0  0  0  0
   -1.7733   -2.5866    2.3414 H   0  0  0  0  0  0  0  0  0  0  0  0
   -2.5964   -3.5487    1.0754 H   0  0  0  0  0  0  0  0  0  0  0  0
  1  2  1  0  0  0  0
  2  3  1  0  0  0  0
  3  4  1  0  0  0  0
  4  5  2  0  0  0  0
  4  6  1  0  0  0  0
  6  7  1  0  0  0  0
  7  8  1  0  0  0  0
  7  9  1  0  0  0  0
  9 10  2  0  0  0  0
  9 11  4  0  0  0  0
 11 12  1  0  0  0  0
 12 13  1  0  0  0  0
  7 14  1  0  0  0  0
 14 15  1  0  0  0  0
 15 16  2  0  0  0  0
 15 17  1  0  0  0  0
 17 18  1  0  0  0  0
 15 19  1  0  0  0  0
 19 20  1  0  0  0  0
  1 21  1  0  0  0  0
  1 22  1  0  0  0  0
  1 23  1  0  0  0  0
  2 24  1  0  0  0  0
  2 25  1  0  0  0  0
  6 26  1  0  0  0  0
  6 27  1  0  0  0  0
 12 28  1  0  0  0  0
 12 29  1  0  0  0  0
 13 30  1  0  0  0  0
 13 31  1  0  0  0  0
 13 32  1  0  0  0  0
 18 33  1  0  0  0  0
 18 34  1  0  0  0  0
 18 35  1  0  0  0  0
 20 36  1  0  0  0  0
 20 37  1  0  0  0  0
 20 38  1  0  0  0  0
M  END
