 xtb: 6.7.1 (edcfbbe)
          04092505213D

 41 40  0     0  0            999 V2000
    3.5448   -2.3412   -1.1333 C   0  0  0  0  0  0  0  0  0  0  0  0
    4.0387   -0.9134   -1.0114 C   0  0  0  0  0  0  0  0  0  0  0  0
    3.3689   -0.1978    0.0356 O   0  0  0  0  0  0  0  0  0  0  0  0
    1.8428    0.2718   -0.0226 P   0  0  0  0  0  0  0  0  0  0  0  0
    1.2261    0.5724   -1.8620 S   0  0  0  0  0  0  0  0  0  0  0  0
    1.8681    1.5085    0.9631 O   0  0  0  0  0  0  0  0  0  0  0  0
    2.0161    2.8648    0.5062 C   0  0  0  0  0  0  0  0  0  0  0  0
    3.3928    3.1222   -0.0706 C   0  0  0  0  0  0  0  0  0  0  0  0
    0.8748   -0.9941    1.3748 S   0  0  0  0  0  0  0  0  0  0  0  0
    0.1223   -2.3126    0.3750 C   0  0  0  0  0  0  0  0  0  0  0  0
   -1.0506   -1.7511   -0.9032 S   0  0  0  0  0  0  0  0  0  0  0  0
   -2.0625   -0.2135    0.1197 P   0  0  0  0  0  0  0  0  0  0  0  0
   -1.3334    1.5965    0.3992 S   0  0  0  0  0  0  0  0  0  0  0  0
   -2.4552   -1.0204    1.4210 O   0  0  0  0  0  0  0  0  0  0  0  0
   -2.9866   -0.3803    2.6045 C   0  0  0  0  0  0  0  0  0  0  0  0
   -1.8911   -0.1537    3.6272 C   0  0  0  0  0  0  0  0  0  0  0  0
   -3.4502   -0.1496   -0.6602 O   0  0  0  0  0  0  0  0  0  0  0  0
   -3.6700    0.7258   -1.7773 C   0  0  0  0  0  0  0  0  0  0  0  0
   -2.8426    0.3192   -2.9799 C   0  0  0  0  0  0  0  0  0  0  0  0
    4.1799   -2.8842   -1.8260 H   0  0  0  0  0  0  0  0  0  0  0  0
    3.5690   -2.8313   -0.1629 H   0  0  0  0  0  0  0  0  0  0  0  0
    2.5265   -2.3421   -1.5217 H   0  0  0  0  0  0  0  0  0  0  0  0
    3.8886   -0.3772   -1.9539 H   0  0  0  0  0  0  0  0  0  0  0  0
    5.0897   -0.8734   -0.7224 H   0  0  0  0  0  0  0  0  0  0  0  0
    1.2331    3.0676   -0.2325 H   0  0  0  0  0  0  0  0  0  0  0  0
    1.8297    3.4617    1.4003 H   0  0  0  0  0  0  0  0  0  0  0  0
    4.1575    2.8350    0.6464 H   0  0  0  0  0  0  0  0  0  0  0  0
    3.5266    2.5421   -0.9831 H   0  0  0  0  0  0  0  0  0  0  0  0
    3.4912    4.1773   -0.3053 H   0  0  0  0  0  0  0  0  0  0  0  0
   -0.4101   -2.9339    1.0921 H   0  0  0  0  0  0  0  0  0  0  0  0
    0.8820   -2.8889   -0.1480 H   0  0  0  0  0  0  0  0  0  0  0  0
   -3.4599    0.5640    2.3220 H   0  0  0  0  0  0  0  0  0  0  0  0
   -3.7425   -1.0754    2.9728 H   0  0  0  0  0  0  0  0  0  0  0  0
   -1.1577    0.5521    3.2424 H   0  0  0  0  0  0  0  0  0  0  0  0
   -2.3280    0.2500    4.5347 H   0  0  0  0  0  0  0  0  0  0  0  0
   -1.3852   -1.0885    3.8514 H   0  0  0  0  0  0  0  0  0  0  0  0
   -4.7396    0.6403   -1.9731 H   0  0  0  0  0  0  0  0  0  0  0  0
   -3.4261    1.7486   -1.4702 H   0  0  0  0  0  0  0  0  0  0  0  0
   -1.7806    0.4492   -2.7649 H   0  0  0  0  0  0  0  0  0  0  0  0
   -3.0207   -0.7245   -3.2267 H   0  0  0  0  0  0  0  0  0  0  0  0
   -3.1037    0.9428   -3.8287 H   0  0  0  0  0  0  0  0  0  0  0  0
  1  2  1  0  0  0  0
  2  3  1  0  0  0  0
  3  4  2  0  0  0  0
  4  5  2  0  0  0  0
  4  6  2  0  0  0  0
  6  7  1  0  0  0  0
  7  8  1  0  0  0  0
  4  9  1  0  0  0  0
  9 10  1  0  0  0  0
 10 11  1  0  0  0  0
 11 12  1  0  0  0  0
 12 13  2  0  0  0  0
 12 14  2  0  0  0  0
 14 15  1  0  0  0  0
 15 16  1  0  0  0  0
 12 17  2  0  0  0  0
 17 18  1  0  0  0  0
 18 19  1  0  0  0  0
  1 20  1  0  0  0  0
  1 21  1  0  0  0  0
  1 22  1  0  0  0  0
  2 23  1  0  0  0  0
  2 24  1  0  0  0  0
  7 25  1  0  0  0  0
  7 26  1  0  0  0  0
  8 27  1  0  0  0  0
  8 28  1  0  0  0  0
  8 29  1  0  0  0  0
 10 30  1  0  0  0  0
 10 31  1  0  0  0  0
 15 32  1  0  0  0  0
 15 33  1  0  0  0  0
 16 34  1  0  0  0  0
 16 35  1  0  0  0  0
 16 36  1  0  0  0  0
 18 37  1  0  0  0  0
 18 38  1  0  0  0  0
 19 39  1  0  0  0  0
 19 40  1  0  0  0  0
 19 41  1  0  0  0  0
M  END
