 xtb: 6.7.1 (edcfbbe)
          04092505213D

 41 40  0     0  0            999 V2000
    1.1345   -2.8680    1.1269 C   0  0  0  0  0  0  0  0  0  0  0  0
    2.1644   -1.8321    1.5315 C   0  0  0  0  0  0  0  0  0  0  0  0
    1.7996   -0.5245    1.0461 O   0  0  0  0  0  0  0  0  0  0  0  0
    2.4372    0.1390   -0.2615 P   0  0  0  0  0  0  0  0  0  0  0  0
    3.1227   -1.1183   -1.5900 S   0  0  0  0  0  0  0  0  0  0  0  0
    3.6147    1.0846    0.2275 O   0  0  0  0  0  0  0  0  0  0  0  0
    3.4723    2.3601    0.8943 C   0  0  0  0  0  0  0  0  0  0  0  0
    2.7407    2.2496    2.2156 C   0  0  0  0  0  0  0  0  0  0  0  0
    0.9031    1.4786   -0.8233 S   0  0  0  0  0  0  0  0  0  0  0  0
    0.1223    0.4251   -2.0718 C   0  0  0  0  0  0  0  0  0  0  0  0
   -0.6034   -1.0841   -1.3838 S   0  0  0  0  0  0  0  0  0  0  0  0
   -1.9829   -0.1373   -0.0860 P   0  0  0  0  0  0  0  0  0  0  0  0
   -2.7899    1.5189   -0.7688 S   0  0  0  0  0  0  0  0  0  0  0  0
   -1.1569   -0.0080    1.2554 O   0  0  0  0  0  0  0  0  0  0  0  0
   -1.3993    1.0461    2.2072 C   0  0  0  0  0  0  0  0  0  0  0  0
   -2.7177    0.8451    2.9238 C   0  0  0  0  0  0  0  0  0  0  0  0
   -2.9597   -1.3300    0.2973 O   0  0  0  0  0  0  0  0  0  0  0  0
   -3.8865   -1.9169   -0.6373 C   0  0  0  0  0  0  0  0  0  0  0  0
   -5.2295   -1.2135   -0.5923 C   0  0  0  0  0  0  0  0  0  0  0  0
    1.1554   -3.0194    0.0496 H   0  0  0  0  0  0  0  0  0  0  0  0
    1.3588   -3.8073    1.6219 H   0  0  0  0  0  0  0  0  0  0  0  0
    0.1394   -2.5356    1.4134 H   0  0  0  0  0  0  0  0  0  0  0  0
    3.1535   -2.0971    1.1459 H   0  0  0  0  0  0  0  0  0  0  0  0
    2.2092   -1.7210    2.6164 H   0  0  0  0  0  0  0  0  0  0  0  0
    4.5043    2.6881    1.0292 H   0  0  0  0  0  0  0  0  0  0  0  0
    2.9517    3.0431    0.2179 H   0  0  0  0  0  0  0  0  0  0  0  0
    1.7186    1.9155    2.0478 H   0  0  0  0  0  0  0  0  0  0  0  0
    3.2438    1.5408    2.8684 H   0  0  0  0  0  0  0  0  0  0  0  0
    2.7202    3.2247    2.6920 H   0  0  0  0  0  0  0  0  0  0  0  0
    0.8674    0.1041   -2.7990 H   0  0  0  0  0  0  0  0  0  0  0  0
   -0.6562    1.0316   -2.5342 H   0  0  0  0  0  0  0  0  0  0  0  0
   -0.5512    0.9847    2.8907 H   0  0  0  0  0  0  0  0  0  0  0  0
   -1.3853    2.0054    1.6791 H   0  0  0  0  0  0  0  0  0  0  0  0
   -2.8413    1.6151    3.6787 H   0  0  0  0  0  0  0  0  0  0  0  0
   -3.5358    0.9146    2.2076 H   0  0  0  0  0  0  0  0  0  0  0  0
   -2.7454   -0.1344    3.3936 H   0  0  0  0  0  0  0  0  0  0  0  0
   -3.4562   -1.8816   -1.6425 H   0  0  0  0  0  0  0  0  0  0  0  0
   -3.9721   -2.9569   -0.3167 H   0  0  0  0  0  0  0  0  0  0  0  0
   -5.6318   -1.2400    0.4166 H   0  0  0  0  0  0  0  0  0  0  0  0
   -5.1240   -0.1757   -0.9008 H   0  0  0  0  0  0  0  0  0  0  0  0
   -5.9176   -1.7139   -1.2660 H   0  0  0  0  0  0  0  0  0  0  0  0
  1  2  1  0  0  0  0
  2  3  1  0  0  0  0
  3  4  1  0  0  0  0
  4  5  2  0  0  0  0
  4  6  2  0  0  0  0
  6  7  1  0  0  0  0
  7  8  1  0  0  0  0
  4  9  1  0  0  0  0
  9 10  1  0  0  0  0
 10 11  1  0  0  0  0
 11 12  1  0  0  0  0
 12 13  2  0  0  0  0
 12 14  2  0  0  0  0
 14 15  1  0  0  0  0
 15 16  1  0  0  0  0
 12 17  2  0  0  0  0
 17 18  1  0  0  0  0
 18 19  1  0  0  0  0
  1 20  1  0  0  0  0
  1 21  1  0  0  0  0
  1 22  1  0  0  0  0
  2 23  1  0  0  0  0
  2 24  1  0  0  0  0
  7 25  1  0  0  0  0
  7 26  1  0  0  0  0
  8 27  1  0  0  0  0
  8 28  1  0  0  0  0
  8 29  1  0  0  0  0
 10 30  1  0  0  0  0
 10 31  1  0  0  0  0
 15 32  1  0  0  0  0
 15 33  1  0  0  0  0
 16 34  1  0  0  0  0
 16 35  1  0  0  0  0
 16 36  1  0  0  0  0
 18 37  1  0  0  0  0
 18 38  1  0  0  0  0
 19 39  1  0  0  0  0
 19 40  1  0  0  0  0
 19 41  1  0  0  0  0
M  END
