 xtb: 6.7.1 (edcfbbe)
          04092505203D

 41 40  0     0  0            999 V2000
    4.6114   -1.2156   -1.4557 C   0  0  0  0  0  0  0  0  0  0  0  0
    4.3387   -1.3262    0.0301 C   0  0  0  0  0  0  0  0  0  0  0  0
    3.5660   -0.2281    0.5471 O   0  0  0  0  0  0  0  0  0  0  0  0
    2.1747    0.2924   -0.0234 P   0  0  0  0  0  0  0  0  0  0  0  0
    2.2337    1.3571   -1.6749 S   0  0  0  0  0  0  0  0  0  0  0  0
    1.6355    1.0503    1.2626 O   0  0  0  0  0  0  0  0  0  0  0  0
    1.8000    2.4666    1.4436 C   0  0  0  0  0  0  0  0  0  0  0  0
    3.2493    2.8279    1.6875 C   0  0  0  0  0  0  0  0  0  0  0  0
    1.0052   -1.4573   -0.0391 S   0  0  0  0  0  0  0  0  0  0  0  0
   -0.0617   -1.1476   -1.4947 C   0  0  0  0  0  0  0  0  0  0  0  0
   -1.7936   -1.5167   -1.1718 S   0  0  0  0  0  0  0  0  0  0  0  0
   -2.3561    0.2262   -0.0788 P   0  0  0  0  0  0  0  0  0  0  0  0
   -1.1449    1.7576   -0.2584 S   0  0  0  0  0  0  0  0  0  0  0  0
   -2.6355   -0.2083    1.4274 O   0  0  0  0  0  0  0  0  0  0  0  0
   -1.6094   -0.5043    2.3891 C   0  0  0  0  0  0  0  0  0  0  0  0
   -1.4442   -2.0035    2.5509 C   0  0  0  0  0  0  0  0  0  0  0  0
   -3.7992    0.5786   -0.5836 O   0  0  0  0  0  0  0  0  0  0  0  0
   -4.8303   -0.3628   -0.9792 C   0  0  0  0  0  0  0  0  0  0  0  0
   -5.0997   -1.4185    0.0699 C   0  0  0  0  0  0  0  0  0  0  0  0
    5.0824   -0.2630   -1.6867 H   0  0  0  0  0  0  0  0  0  0  0  0
    5.2667   -2.0246   -1.7621 H   0  0  0  0  0  0  0  0  0  0  0  0
    3.6802   -1.2796   -2.0169 H   0  0  0  0  0  0  0  0  0  0  0  0
    5.2634   -1.2809    0.6083 H   0  0  0  0  0  0  0  0  0  0  0  0
    3.8052   -2.2535    0.2579 H   0  0  0  0  0  0  0  0  0  0  0  0
    1.4068    2.9784    0.5582 H   0  0  0  0  0  0  0  0  0  0  0  0
    1.1676    2.6994    2.3016 H   0  0  0  0  0  0  0  0  0  0  0  0
    3.8399    2.5804    0.8058 H   0  0  0  0  0  0  0  0  0  0  0  0
    3.3285    3.8930    1.8806 H   0  0  0  0  0  0  0  0  0  0  0  0
    3.6357    2.2710    2.5370 H   0  0  0  0  0  0  0  0  0  0  0  0
    0.2422   -1.8223   -2.2908 H   0  0  0  0  0  0  0  0  0  0  0  0
    0.0552   -0.1020   -1.7919 H   0  0  0  0  0  0  0  0  0  0  0  0
   -0.6721   -0.0257    2.0839 H   0  0  0  0  0  0  0  0  0  0  0  0
   -1.9548   -0.0435    3.3168 H   0  0  0  0  0  0  0  0  0  0  0  0
   -0.7140   -2.1959    3.3303 H   0  0  0  0  0  0  0  0  0  0  0  0
   -2.3939   -2.4517    2.8280 H   0  0  0  0  0  0  0  0  0  0  0  0
   -1.0933   -2.4561    1.6262 H   0  0  0  0  0  0  0  0  0  0  0  0
   -5.6978    0.2788   -1.1407 H   0  0  0  0  0  0  0  0  0  0  0  0
   -4.5243   -0.8197   -1.9233 H   0  0  0  0  0  0  0  0  0  0  0  0
   -4.2321   -2.0659    0.1822 H   0  0  0  0  0  0  0  0  0  0  0  0
   -5.3218   -0.9517    1.0258 H   0  0  0  0  0  0  0  0  0  0  0  0
   -5.9481   -2.0188   -0.2440 H   0  0  0  0  0  0  0  0  0  0  0  0
  1  2  1  0  0  0  0
  2  3  1  0  0  0  0
  3  4  2  0  0  0  0
  4  5  2  0  0  0  0
  4  6  2  0  0  0  0
  6  7  1  0  0  0  0
  7  8  1  0  0  0  0
  4  9  1  0  0  0  0
  9 10  1  0  0  0  0
 10 11  1  0  0  0  0
 11 12  1  0  0  0  0
 12 13  2  0  0  0  0
 12 14  2  0  0  0  0
 14 15  1  0  0  0  0
 15 16  1  0  0  0  0
 12 17  2  0  0  0  0
 17 18  1  0  0  0  0
 18 19  1  0  0  0  0
  1 20  1  0  0  0  0
  1 21  1  0  0  0  0
  1 22  1  0  0  0  0
  2 23  1  0  0  0  0
  2 24  1  0  0  0  0
  7 25  1  0  0  0  0
  7 26  1  0  0  0  0
  8 27  1  0  0  0  0
  8 28  1  0  0  0  0
  8 29  1  0  0  0  0
 10 30  1  0  0  0  0
 10 31  1  0  0  0  0
 15 32  1  0  0  0  0
 15 33  1  0  0  0  0
 16 34  1  0  0  0  0
 16 35  1  0  0  0  0
 16 36  1  0  0  0  0
 18 37  1  0  0  0  0
 18 38  1  0  0  0  0
 19 39  1  0  0  0  0
 19 40  1  0  0  0  0
 19 41  1  0  0  0  0
M  END
