 xtb: 6.7.1 (edcfbbe)
          04092505203D

 41 40  0     0  0            999 V2000
    4.6377   -1.5677   -0.4951 C   0  0  0  0  0  0  0  0  0  0  0  0
    4.5928   -0.0715   -0.2625 C   0  0  0  0  0  0  0  0  0  0  0  0
    3.4170    0.3269    0.4626 O   0  0  0  0  0  0  0  0  0  0  0  0
    1.9655    0.3124   -0.1908 P   0  0  0  0  0  0  0  0  0  0  0  0
    1.9532    0.7971   -2.0970 S   0  0  0  0  0  0  0  0  0  0  0  0
    1.1609    1.1723    0.8690 O   0  0  0  0  0  0  0  0  0  0  0  0
    1.5500    2.4715    1.3589 C   0  0  0  0  0  0  0  0  0  0  0  0
    1.7301    3.4838    0.2473 C   0  0  0  0  0  0  0  0  0  0  0  0
    1.2030   -1.5969    0.2489 S   0  0  0  0  0  0  0  0  0  0  0  0
   -0.0335   -1.7823   -1.0785 C   0  0  0  0  0  0  0  0  0  0  0  0
   -1.7244   -1.9338   -0.4610 S   0  0  0  0  0  0  0  0  0  0  0  0
   -2.0277    0.0675    0.1915 P   0  0  0  0  0  0  0  0  0  0  0  0
   -1.3998    1.4796   -1.0071 S   0  0  0  0  0  0  0  0  0  0  0  0
   -1.4159    0.1749    1.6418 O   0  0  0  0  0  0  0  0  0  0  0  0
   -1.8769   -0.6182    2.7708 C   0  0  0  0  0  0  0  0  0  0  0  0
   -0.8712   -1.6969    3.1184 C   0  0  0  0  0  0  0  0  0  0  0  0
   -3.5888    0.0989    0.5035 O   0  0  0  0  0  0  0  0  0  0  0  0
   -4.5778    0.4216   -0.4899 C   0  0  0  0  0  0  0  0  0  0  0  0
   -4.6802   -0.6348   -1.5708 C   0  0  0  0  0  0  0  0  0  0  0  0
    4.4973   -2.1004    0.4418 H   0  0  0  0  0  0  0  0  0  0  0  0
    3.8496   -1.8594   -1.1873 H   0  0  0  0  0  0  0  0  0  0  0  0
    5.5986   -1.8342   -0.9234 H   0  0  0  0  0  0  0  0  0  0  0  0
    4.6089    0.4660   -1.2163 H   0  0  0  0  0  0  0  0  0  0  0  0
    5.4162    0.2644    0.3693 H   0  0  0  0  0  0  0  0  0  0  0  0
    0.7241    2.7480    2.0172 H   0  0  0  0  0  0  0  0  0  0  0  0
    2.4696    2.3537    1.9373 H   0  0  0  0  0  0  0  0  0  0  0  0
    0.8332    3.5262   -0.3689 H   0  0  0  0  0  0  0  0  0  0  0  0
    1.9194    4.4634    0.6747 H   0  0  0  0  0  0  0  0  0  0  0  0
    2.5694    3.2022   -0.3879 H   0  0  0  0  0  0  0  0  0  0  0  0
    0.1746   -2.7109   -1.6035 H   0  0  0  0  0  0  0  0  0  0  0  0
    0.0465   -0.9232   -1.7508 H   0  0  0  0  0  0  0  0  0  0  0  0
   -1.9790    0.1037    3.5827 H   0  0  0  0  0  0  0  0  0  0  0  0
   -2.8534   -1.0427    2.5322 H   0  0  0  0  0  0  0  0  0  0  0  0
    0.1145   -1.2597    3.2552 H   0  0  0  0  0  0  0  0  0  0  0  0
   -1.1802   -2.1794    4.0402 H   0  0  0  0  0  0  0  0  0  0  0  0
   -0.8113   -2.4429    2.3297 H   0  0  0  0  0  0  0  0  0  0  0  0
   -5.5019    0.5009    0.0847 H   0  0  0  0  0  0  0  0  0  0  0  0
   -4.3247    1.3937   -0.9244 H   0  0  0  0  0  0  0  0  0  0  0  0
   -5.5336   -0.4146   -2.2041 H   0  0  0  0  0  0  0  0  0  0  0  0
   -3.7795   -0.6322   -2.1825 H   0  0  0  0  0  0  0  0  0  0  0  0
   -4.8018   -1.6202   -1.1284 H   0  0  0  0  0  0  0  0  0  0  0  0
  1  2  1  0  0  0  0
  2  3  1  0  0  0  0
  3  4  2  0  0  0  0
  4  5  2  0  0  0  0
  4  6  2  0  0  0  0
  6  7  1  0  0  0  0
  7  8  1  0  0  0  0
  4  9  1  0  0  0  0
  9 10  1  0  0  0  0
 10 11  1  0  0  0  0
 11 12  1  0  0  0  0
 12 13  2  0  0  0  0
 12 14  2  0  0  0  0
 14 15  1  0  0  0  0
 15 16  1  0  0  0  0
 12 17  2  0  0  0  0
 17 18  1  0  0  0  0
 18 19  1  0  0  0  0
  1 20  1  0  0  0  0
  1 21  1  0  0  0  0
  1 22  1  0  0  0  0
  2 23  1  0  0  0  0
  2 24  1  0  0  0  0
  7 25  1  0  0  0  0
  7 26  1  0  0  0  0
  8 27  1  0  0  0  0
  8 28  1  0  0  0  0
  8 29  1  0  0  0  0
 10 30  1  0  0  0  0
 10 31  1  0  0  0  0
 15 32  1  0  0  0  0
 15 33  1  0  0  0  0
 16 34  1  0  0  0  0
 16 35  1  0  0  0  0
 16 36  1  0  0  0  0
 18 37  1  0  0  0  0
 18 38  1  0  0  0  0
 19 39  1  0  0  0  0
 19 40  1  0  0  0  0
 19 41  1  0  0  0  0
M  END
