 xtb: 6.7.1 (edcfbbe)
          04092505213D

 41 40  0     0  0            999 V2000
    1.6116   -2.2068   -2.3815 C   0  0  0  0  0  0  0  0  0  0  0  0
    1.6089   -0.7974   -1.8264 C   0  0  0  0  0  0  0  0  0  0  0  0
    1.9028   -0.8904   -0.4221 O   0  0  0  0  0  0  0  0  0  0  0  0
    2.2965    0.3548    0.4856 P   0  0  0  0  0  0  0  0  0  0  0  0
    3.3247    1.7571   -0.4123 S   0  0  0  0  0  0  0  0  0  0  0  0
    2.9830   -0.3589    1.7236 O   0  0  0  0  0  0  0  0  0  0  0  0
    4.4036   -0.6111    1.7582 C   0  0  0  0  0  0  0  0  0  0  0  0
    4.8252   -1.6230    0.7141 C   0  0  0  0  0  0  0  0  0  0  0  0
    0.5131    0.9574    1.4448 S   0  0  0  0  0  0  0  0  0  0  0  0
   -0.1515   -0.6826    1.8737 C   0  0  0  0  0  0  0  0  0  0  0  0
   -1.0295   -1.5193    0.5197 S   0  0  0  0  0  0  0  0  0  0  0  0
   -2.2175    0.0745   -0.2027 P   0  0  0  0  0  0  0  0  0  0  0  0
   -1.4461    1.3477   -1.4957 S   0  0  0  0  0  0  0  0  0  0  0  0
   -2.7122    0.6705    1.1769 O   0  0  0  0  0  0  0  0  0  0  0  0
   -3.1893    2.0257    1.2984 C   0  0  0  0  0  0  0  0  0  0  0  0
   -4.5156    2.2154    0.5933 C   0  0  0  0  0  0  0  0  0  0  0  0
   -3.5217   -0.6518   -0.7476 O   0  0  0  0  0  0  0  0  0  0  0  0
   -3.6312   -1.1242   -2.1006 C   0  0  0  0  0  0  0  0  0  0  0  0
   -2.6920   -2.2830   -2.3655 C   0  0  0  0  0  0  0  0  0  0  0  0
    1.3461   -2.1740   -3.4330 H   0  0  0  0  0  0  0  0  0  0  0  0
    2.5969   -2.6501   -2.2724 H   0  0  0  0  0  0  0  0  0  0  0  0
    0.8888   -2.8136   -1.8421 H   0  0  0  0  0  0  0  0  0  0  0  0
    0.6335   -0.3177   -1.9556 H   0  0  0  0  0  0  0  0  0  0  0  0
    2.3650   -0.1638   -2.3010 H   0  0  0  0  0  0  0  0  0  0  0  0
    4.9247    0.3393    1.6075 H   0  0  0  0  0  0  0  0  0  0  0  0
    4.5765   -0.9744    2.7721 H   0  0  0  0  0  0  0  0  0  0  0  0
    5.8762   -1.8599    0.8475 H   0  0  0  0  0  0  0  0  0  0  0  0
    4.2337   -2.5300    0.8066 H   0  0  0  0  0  0  0  0  0  0  0  0
    4.6815   -1.2050   -0.2815 H   0  0  0  0  0  0  0  0  0  0  0  0
   -0.8432   -0.5153    2.6952 H   0  0  0  0  0  0  0  0  0  0  0  0
    0.6635   -1.3398    2.1663 H   0  0  0  0  0  0  0  0  0  0  0  0
   -3.2745    2.1779    2.3750 H   0  0  0  0  0  0  0  0  0  0  0  0
   -2.4285    2.6994    0.8905 H   0  0  0  0  0  0  0  0  0  0  0  0
   -4.3837    2.0907   -0.4809 H   0  0  0  0  0  0  0  0  0  0  0  0
   -5.2362    1.4825    0.9465 H   0  0  0  0  0  0  0  0  0  0  0  0
   -4.8882    3.2159    0.7889 H   0  0  0  0  0  0  0  0  0  0  0  0
   -4.6772   -1.4182   -2.1939 H   0  0  0  0  0  0  0  0  0  0  0  0
   -3.4151   -0.2905   -2.7772 H   0  0  0  0  0  0  0  0  0  0  0  0
   -2.8609   -2.6660   -3.3667 H   0  0  0  0  0  0  0  0  0  0  0  0
   -1.6596   -1.9427   -2.2858 H   0  0  0  0  0  0  0  0  0  0  0  0
   -2.8551   -3.0754   -1.6398 H   0  0  0  0  0  0  0  0  0  0  0  0
  1  2  1  0  0  0  0
  2  3  1  0  0  0  0
  3  4  2  0  0  0  0
  4  5  2  0  0  0  0
  4  6  2  0  0  0  0
  6  7  1  0  0  0  0
  7  8  1  0  0  0  0
  4  9  1  0  0  0  0
  9 10  1  0  0  0  0
 10 11  1  0  0  0  0
 11 12  1  0  0  0  0
 12 13  2  0  0  0  0
 12 14  2  0  0  0  0
 14 15  1  0  0  0  0
 15 16  1  0  0  0  0
 12 17  2  0  0  0  0
 17 18  1  0  0  0  0
 18 19  1  0  0  0  0
  1 20  1  0  0  0  0
  1 21  1  0  0  0  0
  1 22  1  0  0  0  0
  2 23  1  0  0  0  0
  2 24  1  0  0  0  0
  7 25  1  0  0  0  0
  7 26  1  0  0  0  0
  8 27  1  0  0  0  0
  8 28  1  0  0  0  0
  8 29  1  0  0  0  0
 10 30  1  0  0  0  0
 10 31  1  0  0  0  0
 15 32  1  0  0  0  0
 15 33  1  0  0  0  0
 16 34  1  0  0  0  0
 16 35  1  0  0  0  0
 16 36  1  0  0  0  0
 18 37  1  0  0  0  0
 18 38  1  0  0  0  0
 19 39  1  0  0  0  0
 19 40  1  0  0  0  0
 19 41  1  0  0  0  0
M  END
