 xtb: 6.7.1 (edcfbbe)
          04092507313D

 38 37  0     0  0            999 V2000
    5.3124   -0.9153   -2.2140 C   0  0  0  0  0  0  0  0  0  0  0  0
    4.3296   -0.0006   -1.5003 C   0  0  0  0  0  0  0  0  0  0  0  0
    2.9905   -0.5265   -1.5710 O   0  0  0  0  0  0  0  0  0  0  0  0
    2.6084   -1.3990   -0.6626 C   0  0  0  0  0  0  0  0  0  0  0  0
    3.2980   -1.8027    0.2462 O   0  0  0  0  0  0  0  0  0  0  0  0
    1.1702   -1.8362   -0.8914 C   0  0  0  0  0  0  0  0  0  0  0  0
    0.2295   -0.6472   -0.6772 C   0  0  0  0  0  0  0  0  0  0  0  0
    0.4563    0.1499   -1.3887 H   0  0  0  0  0  0  0  0  0  0  0  0
    0.3825   -0.1264    0.7377 C   0  0  0  0  0  0  0  0  0  0  0  0
   -0.4355   -0.3324    1.6132 O   0  0  0  0  0  0  0  0  0  0  0  0
    1.5027    0.5216    0.8890 O   0  0  0  0  0  0  0  0  0  0  0  0
    1.8265    1.0463    2.1963 C   0  0  0  0  0  0  0  0  0  0  0  0
    3.3344    1.1548    2.3038 C   0  0  0  0  0  0  0  0  0  0  0  0
   -1.5006   -1.1918   -0.9108 S   0  0  0  0  0  0  0  0  0  0  0  0
   -2.5021    0.4141    0.0344 P   0  0  0  0  0  0  0  0  0  0  0  0
   -1.5576    2.1388    0.1215 S   0  0  0  0  0  0  0  0  0  0  0  0
   -3.8323    0.4794   -0.8460 O   0  0  0  0  0  0  0  0  0  0  0  0
   -3.7926    0.8970   -2.2154 C   0  0  0  0  0  0  0  0  0  0  0  0
   -3.2371   -0.1072    1.3360 O   0  0  0  0  0  0  0  0  0  0  0  0
   -2.9819    0.3182    2.6770 C   0  0  0  0  0  0  0  0  0  0  0  0
    4.9995   -1.0726   -3.2424 H   0  0  0  0  0  0  0  0  0  0  0  0
    6.2970   -0.4596   -2.2053 H   0  0  0  0  0  0  0  0  0  0  0  0
    5.3641   -1.8765   -1.7076 H   0  0  0  0  0  0  0  0  0  0  0  0
    4.2654    0.9725   -1.9869 H   0  0  0  0  0  0  0  0  0  0  0  0
    4.6029    0.1159   -0.4484 H   0  0  0  0  0  0  0  0  0  0  0  0
    0.9278   -2.6389   -0.1944 H   0  0  0  0  0  0  0  0  0  0  0  0
    1.0577   -2.1918   -1.9155 H   0  0  0  0  0  0  0  0  0  0  0  0
    1.3395    2.0224    2.2803 H   0  0  0  0  0  0  0  0  0  0  0  0
    1.4100    0.3722    2.9500 H   0  0  0  0  0  0  0  0  0  0  0  0
    3.5955    1.5218    3.2906 H   0  0  0  0  0  0  0  0  0  0  0  0
    3.7861    0.1769    2.1541 H   0  0  0  0  0  0  0  0  0  0  0  0
    3.7131    1.8423    1.5534 H   0  0  0  0  0  0  0  0  0  0  0  0
   -3.3120    0.1335   -2.8275 H   0  0  0  0  0  0  0  0  0  0  0  0
   -3.2533    1.8420   -2.3033 H   0  0  0  0  0  0  0  0  0  0  0  0
   -4.8311    1.0249   -2.5094 H   0  0  0  0  0  0  0  0  0  0  0  0
   -2.4967    1.2959    2.6826 H   0  0  0  0  0  0  0  0  0  0  0  0
   -2.3397   -0.4115    3.1667 H   0  0  0  0  0  0  0  0  0  0  0  0
   -3.9535    0.3737    3.1628 H   0  0  0  0  0  0  0  0  0  0  0  0
  1  2  1  0  0  0  0
  2  3  1  0  0  0  0
  3  4  1  0  0  0  0
  4  5  2  0  0  0  0
  4  6  1  0  0  0  0
  6  7  1  0  0  0  0
  7  8  1  0  0  0  0
  7  9  1  0  0  0  0
  9 10  2  0  0  0  0
  9 11  4  0  0  0  0
 11 12  1  0  0  0  0
 12 13  1  0  0  0  0
  7 14  1  0  0  0  0
 14 15  1  0  0  0  0
 15 16  2  0  0  0  0
 15 17  1  0  0  0  0
 17 18  1  0  0  0  0
 15 19  2  0  0  0  0
 19 20  1  0  0  0  0
  1 21  1  0  0  0  0
  1 22  1  0  0  0  0
  1 23  1  0  0  0  0
  2 24  1  0  0  0  0
  2 25  1  0  0  0  0
  6 26  1  0  0  0  0
  6 27  1  0  0  0  0
 12 28  1  0  0  0  0
 12 29  1  0  0  0  0
 13 30  1  0  0  0  0
 13 31  1  0  0  0  0
 13 32  1  0  0  0  0
 18 33  1  0  0  0  0
 18 34  1  0  0  0  0
 18 35  1  0  0  0  0
 20 36  1  0  0  0  0
 20 37  1  0  0  0  0
 20 38  1  0  0  0  0
M  END
