 xtb: 6.7.1 (edcfbbe)
          04092507313D

 38 37  0     0  0            999 V2000
    5.2173   -1.0346   -2.3169 C   0  0  0  0  0  0  0  0  0  0  0  0
    4.6166   -0.7876   -0.9471 C   0  0  0  0  0  0  0  0  0  0  0  0
    3.2112   -1.0992   -1.0103 O   0  0  0  0  0  0  0  0  0  0  0  0
    2.5480   -1.1816    0.1251 C   0  0  0  0  0  0  0  0  0  0  0  0
    3.0472   -1.0396    1.2181 O   0  0  0  0  0  0  0  0  0  0  0  0
    1.0805   -1.4971   -0.1076 C   0  0  0  0  0  0  0  0  0  0  0  0
    0.4479   -0.4528   -1.0306 C   0  0  0  0  0  0  0  0  0  0  0  0
    0.9704   -0.4428   -1.9906 H   0  0  0  0  0  0  0  0  0  0  0  0
    0.5035    0.9250   -0.4046 C   0  0  0  0  0  0  0  0  0  0  0  0
   -0.4981    1.5555   -0.1277 O   0  0  0  0  0  0  0  0  0  0  0  0
    1.7279    1.3281   -0.2084 O   0  0  0  0  0  0  0  0  0  0  0  0
    1.9383    2.5454    0.5431 C   0  0  0  0  0  0  0  0  0  0  0  0
    1.9201    2.2476    2.0330 C   0  0  0  0  0  0  0  0  0  0  0  0
   -1.2856   -0.8319   -1.4154 S   0  0  0  0  0  0  0  0  0  0  0  0
   -2.3059   -0.1533    0.3415 P   0  0  0  0  0  0  0  0  0  0  0  0
   -1.4650   -0.0657    2.1117 S   0  0  0  0  0  0  0  0  0  0  0  0
   -3.2666    1.0485   -0.0936 O   0  0  0  0  0  0  0  0  0  0  0  0
   -3.0780    2.4469    0.1126 C   0  0  0  0  0  0  0  0  0  0  0  0
   -3.4010   -1.3086    0.4410 O   0  0  0  0  0  0  0  0  0  0  0  0
   -4.3029   -1.6479   -0.6250 C   0  0  0  0  0  0  0  0  0  0  0  0
    6.2772   -0.8047   -2.2894 H   0  0  0  0  0  0  0  0  0  0  0  0
    5.0846   -2.0742   -2.6012 H   0  0  0  0  0  0  0  0  0  0  0  0
    4.7332   -0.4040   -3.0561 H   0  0  0  0  0  0  0  0  0  0  0  0
    4.7158    0.2588   -0.6435 H   0  0  0  0  0  0  0  0  0  0  0  0
    5.0766   -1.4154   -0.1778 H   0  0  0  0  0  0  0  0  0  0  0  0
    0.5746   -1.5200    0.8605 H   0  0  0  0  0  0  0  0  0  0  0  0
    1.0007   -2.4765   -0.5814 H   0  0  0  0  0  0  0  0  0  0  0  0
    2.9160    2.8987    0.2164 H   0  0  0  0  0  0  0  0  0  0  0  0
    1.1588    3.2625    0.2739 H   0  0  0  0  0  0  0  0  0  0  0  0
    0.9358    1.8954    2.3385 H   0  0  0  0  0  0  0  0  0  0  0  0
    2.6447    1.4711    2.2678 H   0  0  0  0  0  0  0  0  0  0  0  0
    2.1617    3.1484    2.5866 H   0  0  0  0  0  0  0  0  0  0  0  0
   -2.5313    2.6236    1.0386 H   0  0  0  0  0  0  0  0  0  0  0  0
   -4.0790    2.8691    0.1735 H   0  0  0  0  0  0  0  0  0  0  0  0
   -2.5278    2.8711   -0.7251 H   0  0  0  0  0  0  0  0  0  0  0  0
   -4.9601   -0.8068   -0.8381 H   0  0  0  0  0  0  0  0  0  0  0  0
   -4.8707   -2.4981   -0.2559 H   0  0  0  0  0  0  0  0  0  0  0  0
   -3.7400   -1.9201   -1.5182 H   0  0  0  0  0  0  0  0  0  0  0  0
  1  2  1  0  0  0  0
  2  3  1  0  0  0  0
  3  4  1  0  0  0  0
  4  5  2  0  0  0  0
  4  6  1  0  0  0  0
  6  7  1  0  0  0  0
  7  8  1  0  0  0  0
  7  9  1  0  0  0  0
  9 10  2  0  0  0  0
  9 11  4  0  0  0  0
 11 12  1  0  0  0  0
 12 13  1  0  0  0  0
  7 14  1  0  0  0  0
 14 15  1  0  0  0  0
 15 16  2  0  0  0  0
 15 17  2  0  0  0  0
 17 18  1  0  0  0  0
 15 19  1  0  0  0  0
 19 20  1  0  0  0  0
  1 21  1  0  0  0  0
  1 22  1  0  0  0  0
  1 23  1  0  0  0  0
  2 24  1  0  0  0  0
  2 25  1  0  0  0  0
  6 26  1  0  0  0  0
  6 27  1  0  0  0  0
 12 28  1  0  0  0  0
 12 29  1  0  0  0  0
 13 30  1  0  0  0  0
 13 31  1  0  0  0  0
 13 32  1  0  0  0  0
 18 33  1  0  0  0  0
 18 34  1  0  0  0  0
 18 35  1  0  0  0  0
 20 36  1  0  0  0  0
 20 37  1  0  0  0  0
 20 38  1  0  0  0  0
M  END
