 xtb: 6.7.1 (edcfbbe)
          04092505213D

 41 40  0     0  0            999 V2000
    3.4539   -1.5765   -2.5753 C   0  0  0  0  0  0  0  0  0  0  0  0
    2.1487   -1.0715   -1.9958 C   0  0  0  0  0  0  0  0  0  0  0  0
    2.3828    0.0153   -1.0680 O   0  0  0  0  0  0  0  0  0  0  0  0
    2.4624   -0.1722    0.4971 P   0  0  0  0  0  0  0  0  0  0  0  0
    2.8934    1.5019    1.4082 S   0  0  0  0  0  0  0  0  0  0  0  0
    3.5195   -1.3488    0.6544 O   0  0  0  0  0  0  0  0  0  0  0  0
    4.1943   -1.6246    1.8961 C   0  0  0  0  0  0  0  0  0  0  0  0
    3.2459   -2.1020    2.9763 C   0  0  0  0  0  0  0  0  0  0  0  0
    0.6082   -1.0780    1.0385 S   0  0  0  0  0  0  0  0  0  0  0  0
   -0.3084    0.4655    1.2321 C   0  0  0  0  0  0  0  0  0  0  0  0
   -0.6259    1.3098   -0.3526 S   0  0  0  0  0  0  0  0  0  0  0  0
   -2.6072    0.5747   -0.6521 P   0  0  0  0  0  0  0  0  0  0  0  0
   -3.4494    1.1317   -2.3288 S   0  0  0  0  0  0  0  0  0  0  0  0
   -3.3901    0.8970    0.6881 O   0  0  0  0  0  0  0  0  0  0  0  0
   -4.1934    2.0842    0.8122 C   0  0  0  0  0  0  0  0  0  0  0  0
   -3.3422    3.3356    0.8996 C   0  0  0  0  0  0  0  0  0  0  0  0
   -2.4846   -0.9861   -0.4082 O   0  0  0  0  0  0  0  0  0  0  0  0
   -1.9202   -1.8297   -1.4338 C   0  0  0  0  0  0  0  0  0  0  0  0
   -1.7750   -3.2219   -0.8557 C   0  0  0  0  0  0  0  0  0  0  0  0
    3.9961   -0.7569   -3.0390 H   0  0  0  0  0  0  0  0  0  0  0  0
    4.0715   -2.0083   -1.7926 H   0  0  0  0  0  0  0  0  0  0  0  0
    3.2397   -2.3333   -3.3235 H   0  0  0  0  0  0  0  0  0  0  0  0
    1.6133   -1.8726   -1.4773 H   0  0  0  0  0  0  0  0  0  0  0  0
    1.5127   -0.6362   -2.7701 H   0  0  0  0  0  0  0  0  0  0  0  0
    4.9210   -2.3936    1.6306 H   0  0  0  0  0  0  0  0  0  0  0  0
    4.7137   -0.7155    2.2138 H   0  0  0  0  0  0  0  0  0  0  0  0
    3.8210   -2.4247    3.8382 H   0  0  0  0  0  0  0  0  0  0  0  0
    2.5859   -1.2906    3.2790 H   0  0  0  0  0  0  0  0  0  0  0  0
    2.6430   -2.9306    2.6135 H   0  0  0  0  0  0  0  0  0  0  0  0
    0.2866    1.1519    1.8352 H   0  0  0  0  0  0  0  0  0  0  0  0
   -1.2546    0.2230    1.7101 H   0  0  0  0  0  0  0  0  0  0  0  0
   -4.8691    2.1399   -0.0471 H   0  0  0  0  0  0  0  0  0  0  0  0
   -4.7669    1.9202    1.7256 H   0  0  0  0  0  0  0  0  0  0  0  0
   -3.9832    4.1960    1.0626 H   0  0  0  0  0  0  0  0  0  0  0  0
   -2.6302    3.2589    1.7178 H   0  0  0  0  0  0  0  0  0  0  0  0
   -2.7941    3.4768   -0.0320 H   0  0  0  0  0  0  0  0  0  0  0  0
   -2.5915   -1.8140   -2.2977 H   0  0  0  0  0  0  0  0  0  0  0  0
   -0.9513   -1.4192   -1.7380 H   0  0  0  0  0  0  0  0  0  0  0  0
   -2.7445   -3.5887   -0.5328 H   0  0  0  0  0  0  0  0  0  0  0  0
   -1.3743   -3.8836   -1.6163 H   0  0  0  0  0  0  0  0  0  0  0  0
   -1.1040   -3.1995   -0.0010 H   0  0  0  0  0  0  0  0  0  0  0  0
  1  2  1  0  0  0  0
  2  3  1  0  0  0  0
  3  4  2  0  0  0  0
  4  5  2  0  0  0  0
  4  6  2  0  0  0  0
  6  7  1  0  0  0  0
  7  8  1  0  0  0  0
  4  9  1  0  0  0  0
  9 10  1  0  0  0  0
 10 11  1  0  0  0  0
 11 12  1  0  0  0  0
 12 13  2  0  0  0  0
 12 14  2  0  0  0  0
 14 15  1  0  0  0  0
 15 16  1  0  0  0  0
 12 17  2  0  0  0  0
 17 18  1  0  0  0  0
 18 19  1  0  0  0  0
  1 20  1  0  0  0  0
  1 21  1  0  0  0  0
  1 22  1  0  0  0  0
  2 23  1  0  0  0  0
  2 24  1  0  0  0  0
  7 25  1  0  0  0  0
  7 26  1  0  0  0  0
  8 27  1  0  0  0  0
  8 28  1  0  0  0  0
  8 29  1  0  0  0  0
 10 30  1  0  0  0  0
 10 31  1  0  0  0  0
 15 32  1  0  0  0  0
 15 33  1  0  0  0  0
 16 34  1  0  0  0  0
 16 35  1  0  0  0  0
 16 36  1  0  0  0  0
 18 37  1  0  0  0  0
 18 38  1  0  0  0  0
 19 39  1  0  0  0  0
 19 40  1  0  0  0  0
 19 41  1  0  0  0  0
M  END
