 xtb: 6.7.1 (edcfbbe)
          04092505203D

 41 40  0     0  0            999 V2000
    2.4907   -1.5223    3.0295 C   0  0  0  0  0  0  0  0  0  0  0  0
    1.3217   -1.6261    2.0730 C   0  0  0  0  0  0  0  0  0  0  0  0
    1.1641   -0.4215    1.2985 O   0  0  0  0  0  0  0  0  0  0  0  0
    2.1863   -0.0035    0.1609 P   0  0  0  0  0  0  0  0  0  0  0  0
    3.1623   -1.4531   -0.7321 S   0  0  0  0  0  0  0  0  0  0  0  0
    3.0877    1.0490    0.9359 O   0  0  0  0  0  0  0  0  0  0  0  0
    4.3524    1.5089    0.4264 C   0  0  0  0  0  0  0  0  0  0  0  0
    4.1905    2.3679   -0.8109 C   0  0  0  0  0  0  0  0  0  0  0  0
    0.9130    1.1898   -1.0366 S   0  0  0  0  0  0  0  0  0  0  0  0
    0.2987   -0.1552   -2.0855 C   0  0  0  0  0  0  0  0  0  0  0  0
   -0.5658   -1.4501   -1.1518 S   0  0  0  0  0  0  0  0  0  0  0  0
   -2.1774   -0.2552   -0.4694 P   0  0  0  0  0  0  0  0  0  0  0  0
   -2.8110    1.1568   -1.6731 S   0  0  0  0  0  0  0  0  0  0  0  0
   -1.8078    0.2261    1.0014 O   0  0  0  0  0  0  0  0  0  0  0  0
   -1.4705    1.5715    1.3828 C   0  0  0  0  0  0  0  0  0  0  0  0
   -2.3087    1.9719    2.5810 C   0  0  0  0  0  0  0  0  0  0  0  0
   -3.1528   -1.4695   -0.1930 O   0  0  0  0  0  0  0  0  0  0  0  0
   -4.5891   -1.3249   -0.1892 C   0  0  0  0  0  0  0  0  0  0  0  0
   -5.0717   -0.4463    0.9458 C   0  0  0  0  0  0  0  0  0  0  0  0
    2.3880   -0.6398    3.6553 H   0  0  0  0  0  0  0  0  0  0  0  0
    2.5255   -2.4094    3.6541 H   0  0  0  0  0  0  0  0  0  0  0  0
    3.4204   -1.4489    2.4661 H   0  0  0  0  0  0  0  0  0  0  0  0
    0.3697   -1.7279    2.5963 H   0  0  0  0  0  0  0  0  0  0  0  0
    1.4530   -2.4669    1.3837 H   0  0  0  0  0  0  0  0  0  0  0  0
    4.7790    2.0730    1.2568 H   0  0  0  0  0  0  0  0  0  0  0  0
    4.9747    0.6351    0.2085 H   0  0  0  0  0  0  0  0  0  0  0  0
    5.1527    2.7887   -1.0848 H   0  0  0  0  0  0  0  0  0  0  0  0
    3.8210    1.7639   -1.6385 H   0  0  0  0  0  0  0  0  0  0  0  0
    3.4834    3.1722   -0.6236 H   0  0  0  0  0  0  0  0  0  0  0  0
    1.1352   -0.6437   -2.5836 H   0  0  0  0  0  0  0  0  0  0  0  0
   -0.3818    0.3004   -2.8039 H   0  0  0  0  0  0  0  0  0  0  0  0
   -0.4051    1.5771    1.6267 H   0  0  0  0  0  0  0  0  0  0  0  0
   -1.6481    2.2382    0.5318 H   0  0  0  0  0  0  0  0  0  0  0  0
   -1.9895    2.9521    2.9202 H   0  0  0  0  0  0  0  0  0  0  0  0
   -3.3609    2.0141    2.3134 H   0  0  0  0  0  0  0  0  0  0  0  0
   -2.1768    1.2530    3.3844 H   0  0  0  0  0  0  0  0  0  0  0  0
   -4.8961   -0.9107   -1.1545 H   0  0  0  0  0  0  0  0  0  0  0  0
   -4.9511   -2.3495   -0.0930 H   0  0  0  0  0  0  0  0  0  0  0  0
   -6.1567   -0.4610    0.9762 H   0  0  0  0  0  0  0  0  0  0  0  0
   -4.6769   -0.8042    1.8931 H   0  0  0  0  0  0  0  0  0  0  0  0
   -4.7370    0.5776    0.7834 H   0  0  0  0  0  0  0  0  0  0  0  0
  1  2  1  0  0  0  0
  2  3  1  0  0  0  0
  3  4  2  0  0  0  0
  4  5  2  0  0  0  0
  4  6  2  0  0  0  0
  6  7  1  0  0  0  0
  7  8  1  0  0  0  0
  4  9  1  0  0  0  0
  9 10  1  0  0  0  0
 10 11  1  0  0  0  0
 11 12  1  0  0  0  0
 12 13  2  0  0  0  0
 12 14  2  0  0  0  0
 14 15  1  0  0  0  0
 15 16  1  0  0  0  0
 12 17  2  0  0  0  0
 17 18  1  0  0  0  0
 18 19  1  0  0  0  0
  1 20  1  0  0  0  0
  1 21  1  0  0  0  0
  1 22  1  0  0  0  0
  2 23  1  0  0  0  0
  2 24  1  0  0  0  0
  7 25  1  0  0  0  0
  7 26  1  0  0  0  0
  8 27  1  0  0  0  0
  8 28  1  0  0  0  0
  8 29  1  0  0  0  0
 10 30  1  0  0  0  0
 10 31  1  0  0  0  0
 15 32  1  0  0  0  0
 15 33  1  0  0  0  0
 16 34  1  0  0  0  0
 16 35  1  0  0  0  0
 16 36  1  0  0  0  0
 18 37  1  0  0  0  0
 18 38  1  0  0  0  0
 19 39  1  0  0  0  0
 19 40  1  0  0  0  0
 19 41  1  0  0  0  0
M  END
