 xtb: 6.7.1 (edcfbbe)
          04092505213D

 41 40  0     0  0            999 V2000
    3.0386    0.3602   -3.2558 C   0  0  0  0  0  0  0  0  0  0  0  0
    3.3202    0.8569   -1.8519 C   0  0  0  0  0  0  0  0  0  0  0  0
    2.8818   -0.1459   -0.9089 O   0  0  0  0  0  0  0  0  0  0  0  0
    2.0286    0.1487    0.3861 P   0  0  0  0  0  0  0  0  0  0  0  0
    1.0291    1.8481    0.3781 S   0  0  0  0  0  0  0  0  0  0  0  0
    3.1425    0.1381    1.5236 O   0  0  0  0  0  0  0  0  0  0  0  0
    2.9034    0.6308    2.8515 C   0  0  0  0  0  0  0  0  0  0  0  0
    1.9181   -0.2385    3.6064 C   0  0  0  0  0  0  0  0  0  0  0  0
    1.1490   -1.7511    0.6244 S   0  0  0  0  0  0  0  0  0  0  0  0
    0.4403   -2.0030   -1.0367 C   0  0  0  0  0  0  0  0  0  0  0  0
   -0.3379   -0.5315   -1.7695 S   0  0  0  0  0  0  0  0  0  0  0  0
   -1.8196    0.0458   -0.3701 P   0  0  0  0  0  0  0  0  0  0  0  0
   -1.6547   -0.1079    1.5804 S   0  0  0  0  0  0  0  0  0  0  0  0
   -3.1410   -0.6636   -0.9204 O   0  0  0  0  0  0  0  0  0  0  0  0
   -3.8295   -1.7307   -0.2523 C   0  0  0  0  0  0  0  0  0  0  0  0
   -3.0710   -3.0401   -0.3384 C   0  0  0  0  0  0  0  0  0  0  0  0
   -1.9589    1.4985   -0.9806 O   0  0  0  0  0  0  0  0  0  0  0  0
   -2.4931    2.6077   -0.2364 C   0  0  0  0  0  0  0  0  0  0  0  0
   -3.9752    2.4468    0.0324 C   0  0  0  0  0  0  0  0  0  0  0  0
    3.4017    1.0926   -3.9693 H   0  0  0  0  0  0  0  0  0  0  0  0
    3.5440   -0.5863   -3.4234 H   0  0  0  0  0  0  0  0  0  0  0  0
    1.9688    0.2222   -3.3968 H   0  0  0  0  0  0  0  0  0  0  0  0
    2.7900    1.7931   -1.6457 H   0  0  0  0  0  0  0  0  0  0  0  0
    4.3890    1.0015   -1.6825 H   0  0  0  0  0  0  0  0  0  0  0  0
    3.8899    0.6226    3.3168 H   0  0  0  0  0  0  0  0  0  0  0  0
    2.5331    1.6589    2.7781 H   0  0  0  0  0  0  0  0  0  0  0  0
    2.2436   -1.2757    3.5971 H   0  0  0  0  0  0  0  0  0  0  0  0
    1.8397    0.1081    4.6318 H   0  0  0  0  0  0  0  0  0  0  0  0
    0.9322   -0.1788    3.1425 H   0  0  0  0  0  0  0  0  0  0  0  0
   -0.2759   -2.8157   -0.9406 H   0  0  0  0  0  0  0  0  0  0  0  0
    1.2394   -2.2692   -1.7256 H   0  0  0  0  0  0  0  0  0  0  0  0
   -3.9829   -1.4486    0.7942 H   0  0  0  0  0  0  0  0  0  0  0  0
   -4.7886   -1.7853   -0.7688 H   0  0  0  0  0  0  0  0  0  0  0  0
   -2.1638   -2.9770    0.2624 H   0  0  0  0  0  0  0  0  0  0  0  0
   -3.6905   -3.8404    0.0539 H   0  0  0  0  0  0  0  0  0  0  0  0
   -2.8146   -3.2585   -1.3723 H   0  0  0  0  0  0  0  0  0  0  0  0
   -1.9292    2.7007    0.6981 H   0  0  0  0  0  0  0  0  0  0  0  0
   -2.2842    3.4710   -0.8700 H   0  0  0  0  0  0  0  0  0  0  0  0
   -4.3539    3.3478    0.5045 H   0  0  0  0  0  0  0  0  0  0  0  0
   -4.5066    2.2724   -0.8996 H   0  0  0  0  0  0  0  0  0  0  0  0
   -4.1411    1.6009    0.6989 H   0  0  0  0  0  0  0  0  0  0  0  0
  1  2  1  0  0  0  0
  2  3  1  0  0  0  0
  3  4  2  0  0  0  0
  4  5  2  0  0  0  0
  4  6  2  0  0  0  0
  6  7  1  0  0  0  0
  7  8  1  0  0  0  0
  4  9  1  0  0  0  0
  9 10  1  0  0  0  0
 10 11  1  0  0  0  0
 11 12  1  0  0  0  0
 12 13  2  0  0  0  0
 12 14  2  0  0  0  0
 14 15  1  0  0  0  0
 15 16  1  0  0  0  0
 12 17  2  0  0  0  0
 17 18  1  0  0  0  0
 18 19  1  0  0  0  0
  1 20  1  0  0  0  0
  1 21  1  0  0  0  0
  1 22  1  0  0  0  0
  2 23  1  0  0  0  0
  2 24  1  0  0  0  0
  7 25  1  0  0  0  0
  7 26  1  0  0  0  0
  8 27  1  0  0  0  0
  8 28  1  0  0  0  0
  8 29  1  0  0  0  0
 10 30  1  0  0  0  0
 10 31  1  0  0  0  0
 15 32  1  0  0  0  0
 15 33  1  0  0  0  0
 16 34  1  0  0  0  0
 16 35  1  0  0  0  0
 16 36  1  0  0  0  0
 18 37  1  0  0  0  0
 18 38  1  0  0  0  0
 19 39  1  0  0  0  0
 19 40  1  0  0  0  0
 19 41  1  0  0  0  0
M  END
