 xtb: 6.7.1 (edcfbbe)
          04092505213D

 41 40  0     0  0            999 V2000
    2.7563    0.8241   -2.9835 C   0  0  0  0  0  0  0  0  0  0  0  0
    3.5725    1.2232   -1.7709 C   0  0  0  0  0  0  0  0  0  0  0  0
    3.4910    0.2420   -0.7242 O   0  0  0  0  0  0  0  0  0  0  0  0
    2.1520   -0.0465    0.0851 P   0  0  0  0  0  0  0  0  0  0  0  0
    1.2159    1.6233    0.5522 S   0  0  0  0  0  0  0  0  0  0  0  0
    2.6824   -0.8952    1.3053 O   0  0  0  0  0  0  0  0  0  0  0  0
    2.9126   -0.3732    2.6334 C   0  0  0  0  0  0  0  0  0  0  0  0
    2.2808   -1.3110    3.6424 C   0  0  0  0  0  0  0  0  0  0  0  0
    1.2942   -1.6089   -1.0436 S   0  0  0  0  0  0  0  0  0  0  0  0
    0.1633   -2.3362    0.1933 C   0  0  0  0  0  0  0  0  0  0  0  0
   -0.6423   -1.1289    1.2770 S   0  0  0  0  0  0  0  0  0  0  0  0
   -1.8495   -0.0974   -0.1193 P   0  0  0  0  0  0  0  0  0  0  0  0
   -1.2050    0.5648   -1.8529 S   0  0  0  0  0  0  0  0  0  0  0  0
   -2.5223    0.9990    0.8066 O   0  0  0  0  0  0  0  0  0  0  0  0
   -2.1453    2.3868    0.8564 C   0  0  0  0  0  0  0  0  0  0  0  0
   -3.3935    3.2089    1.1045 C   0  0  0  0  0  0  0  0  0  0  0  0
   -2.9676   -1.2146   -0.2361 O   0  0  0  0  0  0  0  0  0  0  0  0
   -3.9416   -1.2301   -1.2988 C   0  0  0  0  0  0  0  0  0  0  0  0
   -4.9159   -0.0766   -1.1868 C   0  0  0  0  0  0  0  0  0  0  0  0
    1.6934    0.8196   -2.7367 H   0  0  0  0  0  0  0  0  0  0  0  0
    2.9228    1.5376   -3.7840 H   0  0  0  0  0  0  0  0  0  0  0  0
    3.0382   -0.1710   -3.3190 H   0  0  0  0  0  0  0  0  0  0  0  0
    3.2275    2.1836   -1.3734 H   0  0  0  0  0  0  0  0  0  0  0  0
    4.6377    1.2755   -1.9995 H   0  0  0  0  0  0  0  0  0  0  0  0
    3.9950   -0.3130    2.7620 H   0  0  0  0  0  0  0  0  0  0  0  0
    2.4815    0.6316    2.6983 H   0  0  0  0  0  0  0  0  0  0  0  0
    2.4839   -0.9429    4.6427 H   0  0  0  0  0  0  0  0  0  0  0  0
    1.2048   -1.3564    3.4882 H   0  0  0  0  0  0  0  0  0  0  0  0
    2.6972   -2.3082    3.5348 H   0  0  0  0  0  0  0  0  0  0  0  0
    0.7329   -2.9910    0.8491 H   0  0  0  0  0  0  0  0  0  0  0  0
   -0.5847   -2.8935   -0.3672 H   0  0  0  0  0  0  0  0  0  0  0  0
   -1.4167    2.5080    1.6620 H   0  0  0  0  0  0  0  0  0  0  0  0
   -1.6625    2.6579   -0.0889 H   0  0  0  0  0  0  0  0  0  0  0  0
   -3.8778    2.8762    2.0179 H   0  0  0  0  0  0  0  0  0  0  0  0
   -3.1132    4.2523    1.2040 H   0  0  0  0  0  0  0  0  0  0  0  0
   -4.0883    3.1020    0.2759 H   0  0  0  0  0  0  0  0  0  0  0  0
   -3.4106   -1.1938   -2.2555 H   0  0  0  0  0  0  0  0  0  0  0  0
   -4.4384   -2.1941   -1.1823 H   0  0  0  0  0  0  0  0  0  0  0  0
   -4.3925    0.8634   -1.3576 H   0  0  0  0  0  0  0  0  0  0  0  0
   -5.6944   -0.1874   -1.9351 H   0  0  0  0  0  0  0  0  0  0  0  0
   -5.3626   -0.0569   -0.1961 H   0  0  0  0  0  0  0  0  0  0  0  0
  1  2  1  0  0  0  0
  2  3  1  0  0  0  0
  3  4  2  0  0  0  0
  4  5  2  0  0  0  0
  4  6  2  0  0  0  0
  6  7  1  0  0  0  0
  7  8  1  0  0  0  0
  4  9  1  0  0  0  0
  9 10  1  0  0  0  0
 10 11  1  0  0  0  0
 11 12  1  0  0  0  0
 12 13  2  0  0  0  0
 12 14  2  0  0  0  0
 14 15  1  0  0  0  0
 15 16  1  0  0  0  0
 12 17  2  0  0  0  0
 17 18  1  0  0  0  0
 18 19  1  0  0  0  0
  1 20  1  0  0  0  0
  1 21  1  0  0  0  0
  1 22  1  0  0  0  0
  2 23  1  0  0  0  0
  2 24  1  0  0  0  0
  7 25  1  0  0  0  0
  7 26  1  0  0  0  0
  8 27  1  0  0  0  0
  8 28  1  0  0  0  0
  8 29  1  0  0  0  0
 10 30  1  0  0  0  0
 10 31  1  0  0  0  0
 15 32  1  0  0  0  0
 15 33  1  0  0  0  0
 16 34  1  0  0  0  0
 16 35  1  0  0  0  0
 16 36  1  0  0  0  0
 18 37  1  0  0  0  0
 18 38  1  0  0  0  0
 19 39  1  0  0  0  0
 19 40  1  0  0  0  0
 19 41  1  0  0  0  0
M  END
