 xtb: 6.7.1 (edcfbbe)
          04092505203D

 41 40  0     0  0            999 V2000
    2.3523   -2.8131   -1.4087 C   0  0  0  0  0  0  0  0  0  0  0  0
    3.3488   -1.7073   -1.6872 C   0  0  0  0  0  0  0  0  0  0  0  0
    3.5242   -0.8157   -0.5625 O   0  0  0  0  0  0  0  0  0  0  0  0
    2.3957    0.0517    0.1333 P   0  0  0  0  0  0  0  0  0  0  0  0
    3.1692    1.5313    1.1480 S   0  0  0  0  0  0  0  0  0  0  0  0
    1.4829   -0.9371    1.0006 O   0  0  0  0  0  0  0  0  0  0  0  0
    1.6740   -1.0828    2.4200 C   0  0  0  0  0  0  0  0  0  0  0  0
    2.9179   -1.8927    2.7231 C   0  0  0  0  0  0  0  0  0  0  0  0
    1.0750    0.5515   -1.4419 S   0  0  0  0  0  0  0  0  0  0  0  0
    0.2479    1.9066   -0.5720 C   0  0  0  0  0  0  0  0  0  0  0  0
   -0.8183    1.3451    0.7715 S   0  0  0  0  0  0  0  0  0  0  0  0
   -2.1983    0.2734   -0.4714 P   0  0  0  0  0  0  0  0  0  0  0  0
   -2.4654    0.9949   -2.2688 S   0  0  0  0  0  0  0  0  0  0  0  0
   -3.4613    0.1117    0.4786 O   0  0  0  0  0  0  0  0  0  0  0  0
   -4.1132    1.1808    1.1896 C   0  0  0  0  0  0  0  0  0  0  0  0
   -4.5318    2.3201    0.2846 C   0  0  0  0  0  0  0  0  0  0  0  0
   -1.6734   -1.2101   -0.5611 O   0  0  0  0  0  0  0  0  0  0  0  0
   -1.5393   -2.0779    0.5904 C   0  0  0  0  0  0  0  0  0  0  0  0
   -2.6917   -3.0593    0.6451 C   0  0  0  0  0  0  0  0  0  0  0  0
    2.6355   -3.3604   -0.5134 H   0  0  0  0  0  0  0  0  0  0  0  0
    1.3560   -2.3951   -1.2746 H   0  0  0  0  0  0  0  0  0  0  0  0
    2.3345   -3.4939   -2.2541 H   0  0  0  0  0  0  0  0  0  0  0  0
    3.0383   -1.1131   -2.5508 H   0  0  0  0  0  0  0  0  0  0  0  0
    4.3531   -2.1011   -1.8518 H   0  0  0  0  0  0  0  0  0  0  0  0
    1.7428   -0.0865    2.8682 H   0  0  0  0  0  0  0  0  0  0  0  0
    0.7688   -1.5828    2.7666 H   0  0  0  0  0  0  0  0  0  0  0  0
    3.7926   -1.3804    2.3220 H   0  0  0  0  0  0  0  0  0  0  0  0
    3.0302   -1.9951    3.7977 H   0  0  0  0  0  0  0  0  0  0  0  0
    2.8498   -2.8790    2.2722 H   0  0  0  0  0  0  0  0  0  0  0  0
   -0.3542    2.4226   -1.3200 H   0  0  0  0  0  0  0  0  0  0  0  0
    0.9945    2.5663   -0.1288 H   0  0  0  0  0  0  0  0  0  0  0  0
   -4.9788    0.6957    1.6443 H   0  0  0  0  0  0  0  0  0  0  0  0
   -3.4335    1.5364    1.9690 H   0  0  0  0  0  0  0  0  0  0  0  0
   -3.6546    2.8086   -0.1372 H   0  0  0  0  0  0  0  0  0  0  0  0
   -5.1431    1.9494   -0.5347 H   0  0  0  0  0  0  0  0  0  0  0  0
   -5.0992    3.0461    0.8578 H   0  0  0  0  0  0  0  0  0  0  0  0
   -0.5848   -2.5885    0.4483 H   0  0  0  0  0  0  0  0  0  0  0  0
   -1.4960   -1.4638    1.4941 H   0  0  0  0  0  0  0  0  0  0  0  0
   -2.7353   -3.6313   -0.2775 H   0  0  0  0  0  0  0  0  0  0  0  0
   -2.5459   -3.7356    1.4816 H   0  0  0  0  0  0  0  0  0  0  0  0
   -3.6309   -2.5270    0.7704 H   0  0  0  0  0  0  0  0  0  0  0  0
  1  2  1  0  0  0  0
  2  3  1  0  0  0  0
  3  4  2  0  0  0  0
  4  5  2  0  0  0  0
  4  6  1  0  0  0  0
  6  7  1  0  0  0  0
  7  8  1  0  0  0  0
  4  9  1  0  0  0  0
  9 10  1  0  0  0  0
 10 11  1  0  0  0  0
 11 12  1  0  0  0  0
 12 13  2  0  0  0  0
 12 14  2  0  0  0  0
 14 15  1  0  0  0  0
 15 16  1  0  0  0  0
 12 17  2  0  0  0  0
 17 18  1  0  0  0  0
 18 19  1  0  0  0  0
  1 20  1  0  0  0  0
  1 21  1  0  0  0  0
  1 22  1  0  0  0  0
  2 23  1  0  0  0  0
  2 24  1  0  0  0  0
  7 25  1  0  0  0  0
  7 26  1  0  0  0  0
  8 27  1  0  0  0  0
  8 28  1  0  0  0  0
  8 29  1  0  0  0  0
 10 30  1  0  0  0  0
 10 31  1  0  0  0  0
 15 32  1  0  0  0  0
 15 33  1  0  0  0  0
 16 34  1  0  0  0  0
 16 35  1  0  0  0  0
 16 36  1  0  0  0  0
 18 37  1  0  0  0  0
 18 38  1  0  0  0  0
 19 39  1  0  0  0  0
 19 40  1  0  0  0  0
 19 41  1  0  0  0  0
M  END
