 xtb: 6.7.1 (edcfbbe)
          04092507313D

 38 37  0     0  0            999 V2000
    2.1535   -3.8827    0.5832 C   0  0  0  0  0  0  0  0  0  0  0  0
    2.8447   -2.5348    0.5011 C   0  0  0  0  0  0  0  0  0  0  0  0
    2.3674   -1.8424   -0.6687 O   0  0  0  0  0  0  0  0  0  0  0  0
    2.1283   -0.5553   -0.6098 C   0  0  0  0  0  0  0  0  0  0  0  0
    2.2769    0.1455    0.3727 O   0  0  0  0  0  0  0  0  0  0  0  0
    1.6658   -0.0002   -1.9440 C   0  0  0  0  0  0  0  0  0  0  0  0
    0.4355    0.8949   -1.7685 C   0  0  0  0  0  0  0  0  0  0  0  0
    0.3435    1.5697   -2.6223 H   0  0  0  0  0  0  0  0  0  0  0  0
    0.5208    1.7170   -0.4964 C   0  0  0  0  0  0  0  0  0  0  0  0
   -0.2433    1.5462    0.4386 O   0  0  0  0  0  0  0  0  0  0  0  0
    1.4347    2.6375   -0.5672 O   0  0  0  0  0  0  0  0  0  0  0  0
    1.6710    3.4657    0.5926 C   0  0  0  0  0  0  0  0  0  0  0  0
    0.6890    4.6237    0.6481 C   0  0  0  0  0  0  0  0  0  0  0  0
   -1.1264   -0.0497   -1.7463 S   0  0  0  0  0  0  0  0  0  0  0  0
   -1.6271   -0.4405    0.2782 P   0  0  0  0  0  0  0  0  0  0  0  0
   -0.3932   -1.2133    1.6021 S   0  0  0  0  0  0  0  0  0  0  0  0
   -2.6947    0.6332    0.7679 O   0  0  0  0  0  0  0  0  0  0  0  0
   -2.5732    1.4288    1.9465 C   0  0  0  0  0  0  0  0  0  0  0  0
   -2.7621   -1.5274   -0.0889 O   0  0  0  0  0  0  0  0  0  0  0  0
   -2.4325   -2.8463   -0.5242 C   0  0  0  0  0  0  0  0  0  0  0  0
    1.0935   -3.7414    0.7781 H   0  0  0  0  0  0  0  0  0  0  0  0
    2.2785   -4.4224   -0.3505 H   0  0  0  0  0  0  0  0  0  0  0  0
    2.5854   -4.4564    1.3960 H   0  0  0  0  0  0  0  0  0  0  0  0
    3.9257   -2.6471    0.3830 H   0  0  0  0  0  0  0  0  0  0  0  0
    2.6308   -1.9218    1.3816 H   0  0  0  0  0  0  0  0  0  0  0  0
    1.4477   -0.8153   -2.6319 H   0  0  0  0  0  0  0  0  0  0  0  0
    2.4850    0.6054   -2.3381 H   0  0  0  0  0  0  0  0  0  0  0  0
    1.5984    2.8345    1.4824 H   0  0  0  0  0  0  0  0  0  0  0  0
    2.6949    3.8146    0.4616 H   0  0  0  0  0  0  0  0  0  0  0  0
   -0.3271    4.2527    0.7620 H   0  0  0  0  0  0  0  0  0  0  0  0
    0.9289    5.2523    1.4991 H   0  0  0  0  0  0  0  0  0  0  0  0
    0.7520    5.2126   -0.2626 H   0  0  0  0  0  0  0  0  0  0  0  0
   -3.5185    1.3421    2.4788 H   0  0  0  0  0  0  0  0  0  0  0  0
   -2.3869    2.4615    1.6562 H   0  0  0  0  0  0  0  0  0  0  0  0
   -1.7533    1.0688    2.5707 H   0  0  0  0  0  0  0  0  0  0  0  0
   -2.0675   -2.8266   -1.5515 H   0  0  0  0  0  0  0  0  0  0  0  0
   -3.3560   -3.4159   -0.4584 H   0  0  0  0  0  0  0  0  0  0  0  0
   -1.6742   -3.2770    0.1335 H   0  0  0  0  0  0  0  0  0  0  0  0
  1  2  1  0  0  0  0
  2  3  1  0  0  0  0
  3  4  4  0  0  0  0
  4  5  2  0  0  0  0
  4  6  1  0  0  0  0
  6  7  1  0  0  0  0
  7  8  1  0  0  0  0
  7  9  1  0  0  0  0
  9 10  2  0  0  0  0
  9 11  4  0  0  0  0
 11 12  1  0  0  0  0
 12 13  1  0  0  0  0
  7 14  1  0  0  0  0
 14 15  1  0  0  0  0
 15 16  2  0  0  0  0
 15 17  1  0  0  0  0
 17 18  1  0  0  0  0
 15 19  1  0  0  0  0
 19 20  1  0  0  0  0
  1 21  1  0  0  0  0
  1 22  1  0  0  0  0
  1 23  1  0  0  0  0
  2 24  1  0  0  0  0
  2 25  1  0  0  0  0
  6 26  1  0  0  0  0
  6 27  1  0  0  0  0
 12 28  1  0  0  0  0
 12 29  1  0  0  0  0
 13 30  1  0  0  0  0
 13 31  1  0  0  0  0
 13 32  1  0  0  0  0
 18 33  1  0  0  0  0
 18 34  1  0  0  0  0
 18 35  1  0  0  0  0
 20 36  1  0  0  0  0
 20 37  1  0  0  0  0
 20 38  1  0  0  0  0
M  END
