 xtb: 6.7.1 (edcfbbe)
          04092505213D

 41 40  0     0  0            999 V2000
    4.8517   -0.9723   -2.2562 C   0  0  0  0  0  0  0  0  0  0  0  0
    4.6374   -0.1823   -0.9811 C   0  0  0  0  0  0  0  0  0  0  0  0
    3.4896    0.6934   -1.1109 O   0  0  0  0  0  0  0  0  0  0  0  0
    2.0683    0.3616   -0.4895 P   0  0  0  0  0  0  0  0  0  0  0  0
    0.8559    1.8422   -0.8803 S   0  0  0  0  0  0  0  0  0  0  0  0
    2.3021    0.0413    1.0607 O   0  0  0  0  0  0  0  0  0  0  0  0
    2.4557    1.1022    2.0249 C   0  0  0  0  0  0  0  0  0  0  0  0
    2.3935    0.4852    3.4058 C   0  0  0  0  0  0  0  0  0  0  0  0
    1.6308   -1.5872   -1.1401 S   0  0  0  0  0  0  0  0  0  0  0  0
    0.0362   -1.8339   -0.3200 C   0  0  0  0  0  0  0  0  0  0  0  0
   -1.3335   -0.9857   -1.1721 S   0  0  0  0  0  0  0  0  0  0  0  0
   -2.2360   -0.0729    0.5313 P   0  0  0  0  0  0  0  0  0  0  0  0
   -1.0492    0.3588    2.0217 S   0  0  0  0  0  0  0  0  0  0  0  0
   -3.3297   -1.0829    1.0478 O   0  0  0  0  0  0  0  0  0  0  0  0
   -4.3751   -1.6473    0.2156 C   0  0  0  0  0  0  0  0  0  0  0  0
   -4.0897   -3.1103   -0.0602 C   0  0  0  0  0  0  0  0  0  0  0  0
   -3.1517    1.0548   -0.1085 O   0  0  0  0  0  0  0  0  0  0  0  0
   -2.7098    2.2416   -0.7905 C   0  0  0  0  0  0  0  0  0  0  0  0
   -2.3598    3.3425    0.1894 C   0  0  0  0  0  0  0  0  0  0  0  0
    4.9403   -0.2948   -3.1009 H   0  0  0  0  0  0  0  0  0  0  0  0
    5.7640   -1.5529   -2.1637 H   0  0  0  0  0  0  0  0  0  0  0  0
    4.0158   -1.6460   -2.4322 H   0  0  0  0  0  0  0  0  0  0  0  0
    5.4741    0.4921   -0.7896 H   0  0  0  0  0  0  0  0  0  0  0  0
    4.4891   -0.8433   -0.1234 H   0  0  0  0  0  0  0  0  0  0  0  0
    3.4142    1.5970    1.8427 H   0  0  0  0  0  0  0  0  0  0  0  0
    1.6470    1.8254    1.8785 H   0  0  0  0  0  0  0  0  0  0  0  0
    2.5688    1.2577    4.1470 H   0  0  0  0  0  0  0  0  0  0  0  0
    1.4090    0.0536    3.5677 H   0  0  0  0  0  0  0  0  0  0  0  0
    3.1465   -0.2912    3.5030 H   0  0  0  0  0  0  0  0  0  0  0  0
    0.0911   -1.4624    0.7065 H   0  0  0  0  0  0  0  0  0  0  0  0
   -0.1434   -2.9054   -0.3493 H   0  0  0  0  0  0  0  0  0  0  0  0
   -5.2893   -1.5231    0.7979 H   0  0  0  0  0  0  0  0  0  0  0  0
   -4.4485   -1.0727   -0.7097 H   0  0  0  0  0  0  0  0  0  0  0  0
   -3.9253   -3.6383    0.8749 H   0  0  0  0  0  0  0  0  0  0  0  0
   -4.9416   -3.5458   -0.5726 H   0  0  0  0  0  0  0  0  0  0  0  0
   -3.2082   -3.2153   -0.6876 H   0  0  0  0  0  0  0  0  0  0  0  0
   -1.8514    2.0040   -1.4240 H   0  0  0  0  0  0  0  0  0  0  0  0
   -3.5627    2.5192   -1.4128 H   0  0  0  0  0  0  0  0  0  0  0  0
   -2.1216    4.2462   -0.3617 H   0  0  0  0  0  0  0  0  0  0  0  0
   -3.1937    3.5308    0.8603 H   0  0  0  0  0  0  0  0  0  0  0  0
   -1.4895    3.0568    0.7767 H   0  0  0  0  0  0  0  0  0  0  0  0
  1  2  1  0  0  0  0
  2  3  1  0  0  0  0
  3  4  2  0  0  0  0
  4  5  2  0  0  0  0
  4  6  1  0  0  0  0
  6  7  1  0  0  0  0
  7  8  1  0  0  0  0
  4  9  1  0  0  0  0
  9 10  1  0  0  0  0
 10 11  1  0  0  0  0
 11 12  1  0  0  0  0
 12 13  2  0  0  0  0
 12 14  2  0  0  0  0
 14 15  1  0  0  0  0
 15 16  1  0  0  0  0
 12 17  2  0  0  0  0
 17 18  1  0  0  0  0
 18 19  1  0  0  0  0
  1 20  1  0  0  0  0
  1 21  1  0  0  0  0
  1 22  1  0  0  0  0
  2 23  1  0  0  0  0
  2 24  1  0  0  0  0
  7 25  1  0  0  0  0
  7 26  1  0  0  0  0
  8 27  1  0  0  0  0
  8 28  1  0  0  0  0
  8 29  1  0  0  0  0
 10 30  1  0  0  0  0
 10 31  1  0  0  0  0
 15 32  1  0  0  0  0
 15 33  1  0  0  0  0
 16 34  1  0  0  0  0
 16 35  1  0  0  0  0
 16 36  1  0  0  0  0
 18 37  1  0  0  0  0
 18 38  1  0  0  0  0
 19 39  1  0  0  0  0
 19 40  1  0  0  0  0
 19 41  1  0  0  0  0
M  END
