 xtb: 6.7.1 (edcfbbe)
          04092505213D

 41 40  0     0  0            999 V2000
    4.5466   -0.2686   -2.0547 C   0  0  0  0  0  0  0  0  0  0  0  0
    4.0963   -1.1655   -0.9216 C   0  0  0  0  0  0  0  0  0  0  0  0
    3.5960   -0.4267    0.2112 O   0  0  0  0  0  0  0  0  0  0  0  0
    2.4519    0.6722    0.1484 P   0  0  0  0  0  0  0  0  0  0  0  0
    2.8883    2.4687   -0.4878 S   0  0  0  0  0  0  0  0  0  0  0  0
    1.9831    0.7611    1.6500 O   0  0  0  0  0  0  0  0  0  0  0  0
    1.6750   -0.3932    2.4670 C   0  0  0  0  0  0  0  0  0  0  0  0
    2.8491   -0.7390    3.3583 C   0  0  0  0  0  0  0  0  0  0  0  0
    0.9023   -0.3127   -0.9272 S   0  0  0  0  0  0  0  0  0  0  0  0
   -0.0733    1.2015   -1.2163 C   0  0  0  0  0  0  0  0  0  0  0  0
   -1.7471    0.8123   -1.7571 S   0  0  0  0  0  0  0  0  0  0  0  0
   -2.3634   -0.0753    0.0662 P   0  0  0  0  0  0  0  0  0  0  0  0
   -1.6643    0.6710    1.7302 S   0  0  0  0  0  0  0  0  0  0  0  0
   -2.0386   -1.6266   -0.0341 O   0  0  0  0  0  0  0  0  0  0  0  0
   -2.5022   -2.4370   -1.1437 C   0  0  0  0  0  0  0  0  0  0  0  0
   -1.3358   -2.8525   -2.0166 C   0  0  0  0  0  0  0  0  0  0  0  0
   -3.9300    0.0967   -0.1810 O   0  0  0  0  0  0  0  0  0  0  0  0
   -4.8738    0.0947    0.9083 C   0  0  0  0  0  0  0  0  0  0  0  0
   -5.0337   -1.2880    1.5083 C   0  0  0  0  0  0  0  0  0  0  0  0
    5.2795    0.4524   -1.7005 H   0  0  0  0  0  0  0  0  0  0  0  0
    4.9866   -0.8741   -2.8405 H   0  0  0  0  0  0  0  0  0  0  0  0
    3.6973    0.2791   -2.4608 H   0  0  0  0  0  0  0  0  0  0  0  0
    4.9302   -1.7348   -0.5074 H   0  0  0  0  0  0  0  0  0  0  0  0
    3.3089   -1.8461   -1.2568 H   0  0  0  0  0  0  0  0  0  0  0  0
    0.8003   -0.0930    3.0484 H   0  0  0  0  0  0  0  0  0  0  0  0
    1.4047   -1.2294    1.8155 H   0  0  0  0  0  0  0  0  0  0  0  0
    3.7100   -1.0168    2.7557 H   0  0  0  0  0  0  0  0  0  0  0  0
    3.1124    0.1191    3.9705 H   0  0  0  0  0  0  0  0  0  0  0  0
    2.5739   -1.5686    4.0017 H   0  0  0  0  0  0  0  0  0  0  0  0
    0.3975    1.7876   -2.0032 H   0  0  0  0  0  0  0  0  0  0  0  0
   -0.1145    1.7687   -0.2837 H   0  0  0  0  0  0  0  0  0  0  0  0
   -2.9764   -3.3039   -0.6802 H   0  0  0  0  0  0  0  0  0  0  0  0
   -3.2430   -1.8702   -1.7150 H   0  0  0  0  0  0  0  0  0  0  0  0
   -0.8756   -1.9836   -2.4812 H   0  0  0  0  0  0  0  0  0  0  0  0
   -0.5853   -3.3602   -1.4180 H   0  0  0  0  0  0  0  0  0  0  0  0
   -1.6949   -3.5225   -2.7911 H   0  0  0  0  0  0  0  0  0  0  0  0
   -4.5328    0.8070    1.6662 H   0  0  0  0  0  0  0  0  0  0  0  0
   -5.7997    0.4520    0.4556 H   0  0  0  0  0  0  0  0  0  0  0  0
   -5.3440   -1.9980    0.7461 H   0  0  0  0  0  0  0  0  0  0  0  0
   -4.0866   -1.6151    1.9370 H   0  0  0  0  0  0  0  0  0  0  0  0
   -5.7827   -1.2539    2.2934 H   0  0  0  0  0  0  0  0  0  0  0  0
  1  2  1  0  0  0  0
  2  3  1  0  0  0  0
  3  4  2  0  0  0  0
  4  5  2  0  0  0  0
  4  6  2  0  0  0  0
  6  7  1  0  0  0  0
  7  8  1  0  0  0  0
  4  9  1  0  0  0  0
  9 10  1  0  0  0  0
 10 11  1  0  0  0  0
 11 12  1  0  0  0  0
 12 13  2  0  0  0  0
 12 14  2  0  0  0  0
 14 15  1  0  0  0  0
 15 16  1  0  0  0  0
 12 17  1  0  0  0  0
 17 18  1  0  0  0  0
 18 19  1  0  0  0  0
  1 20  1  0  0  0  0
  1 21  1  0  0  0  0
  1 22  1  0  0  0  0
  2 23  1  0  0  0  0
  2 24  1  0  0  0  0
  7 25  1  0  0  0  0
  7 26  1  0  0  0  0
  8 27  1  0  0  0  0
  8 28  1  0  0  0  0
  8 29  1  0  0  0  0
 10 30  1  0  0  0  0
 10 31  1  0  0  0  0
 15 32  1  0  0  0  0
 15 33  1  0  0  0  0
 16 34  1  0  0  0  0
 16 35  1  0  0  0  0
 16 36  1  0  0  0  0
 18 37  1  0  0  0  0
 18 38  1  0  0  0  0
 19 39  1  0  0  0  0
 19 40  1  0  0  0  0
 19 41  1  0  0  0  0
M  END
