 xtb: 6.7.1 (edcfbbe)
          04092507313D

 38 37  0     0  0            999 V2000
    5.5552   -3.1986   -1.9761 C   0  0  0  0  0  0  0  0  0  0  0  0
    4.8350   -2.2067   -1.0849 C   0  0  0  0  0  0  0  0  0  0  0  0
    3.4213   -2.3114   -1.3555 O   0  0  0  0  0  0  0  0  0  0  0  0
    2.6135   -1.4687   -0.7557 C   0  0  0  0  0  0  0  0  0  0  0  0
    2.9792   -0.5953    0.0064 O   0  0  0  0  0  0  0  0  0  0  0  0
    1.1641   -1.7247   -1.1038 C   0  0  0  0  0  0  0  0  0  0  0  0
    0.3208   -0.5275   -0.6880 C   0  0  0  0  0  0  0  0  0  0  0  0
    0.4771    0.3404   -1.3333 H   0  0  0  0  0  0  0  0  0  0  0  0
    0.6199   -0.1410    0.7507 C   0  0  0  0  0  0  0  0  0  0  0  0
    0.5577   -0.9268    1.6729 O   0  0  0  0  0  0  0  0  0  0  0  0
    0.8618    1.1440    0.8591 O   0  0  0  0  0  0  0  0  0  0  0  0
    1.1972    1.6787    2.1541 C   0  0  0  0  0  0  0  0  0  0  0  0
    0.6408    3.0853    2.2625 C   0  0  0  0  0  0  0  0  0  0  0  0
   -1.4450   -0.9888   -0.7523 S   0  0  0  0  0  0  0  0  0  0  0  0
   -2.2151    0.8470   -0.0064 P   0  0  0  0  0  0  0  0  0  0  0  0
   -1.5564    2.4764   -0.8556 S   0  0  0  0  0  0  0  0  0  0  0  0
   -3.7885    0.6060   -0.1268 O   0  0  0  0  0  0  0  0  0  0  0  0
   -4.4358    0.5954   -1.4066 C   0  0  0  0  0  0  0  0  0  0  0  0
   -2.0300    0.8495    1.5660 O   0  0  0  0  0  0  0  0  0  0  0  0
   -2.5131   -0.2076    2.4220 C   0  0  0  0  0  0  0  0  0  0  0  0
    5.2057   -4.2054   -1.7695 H   0  0  0  0  0  0  0  0  0  0  0  0
    5.3652   -2.9682   -3.0199 H   0  0  0  0  0  0  0  0  0  0  0  0
    6.6216   -3.1424   -1.7849 H   0  0  0  0  0  0  0  0  0  0  0  0
    5.1472   -1.1762   -1.2803 H   0  0  0  0  0  0  0  0  0  0  0  0
    4.9963   -2.4189   -0.0235 H   0  0  0  0  0  0  0  0  0  0  0  0
    0.8459   -2.6068   -0.5407 H   0  0  0  0  0  0  0  0  0  0  0  0
    1.0599   -1.9399   -2.1662 H   0  0  0  0  0  0  0  0  0  0  0  0
    0.7843    1.0142    2.9190 H   0  0  0  0  0  0  0  0  0  0  0  0
    2.2891    1.6698    2.2193 H   0  0  0  0  0  0  0  0  0  0  0  0
    1.0345    3.7027    1.4603 H   0  0  0  0  0  0  0  0  0  0  0  0
   -0.4434    3.0662    2.1802 H   0  0  0  0  0  0  0  0  0  0  0  0
    0.9226    3.5093    3.2203 H   0  0  0  0  0  0  0  0  0  0  0  0
   -5.4999    0.6645   -1.1953 H   0  0  0  0  0  0  0  0  0  0  0  0
   -4.2039   -0.3319   -1.9290 H   0  0  0  0  0  0  0  0  0  0  0  0
   -4.1069    1.4505   -1.9986 H   0  0  0  0  0  0  0  0  0  0  0  0
   -2.7020    0.2620    3.3839 H   0  0  0  0  0  0  0  0  0  0  0  0
   -1.7373   -0.9688    2.5146 H   0  0  0  0  0  0  0  0  0  0  0  0
   -3.4267   -0.6379    2.0185 H   0  0  0  0  0  0  0  0  0  0  0  0
  1  2  1  0  0  0  0
  2  3  1  0  0  0  0
  3  4  4  0  0  0  0
  4  5  2  0  0  0  0
  4  6  1  0  0  0  0
  6  7  1  0  0  0  0
  7  8  1  0  0  0  0
  7  9  1  0  0  0  0
  9 10  2  0  0  0  0
  9 11  1  0  0  0  0
 11 12  1  0  0  0  0
 12 13  1  0  0  0  0
  7 14  1  0  0  0  0
 14 15  1  0  0  0  0
 15 16  2  0  0  0  0
 15 17  2  0  0  0  0
 17 18  1  0  0  0  0
 15 19  2  0  0  0  0
 19 20  1  0  0  0  0
  1 21  1  0  0  0  0
  1 22  1  0  0  0  0
  1 23  1  0  0  0  0
  2 24  1  0  0  0  0
  2 25  1  0  0  0  0
  6 26  1  0  0  0  0
  6 27  1  0  0  0  0
 12 28  1  0  0  0  0
 12 29  1  0  0  0  0
 13 30  1  0  0  0  0
 13 31  1  0  0  0  0
 13 32  1  0  0  0  0
 18 33  1  0  0  0  0
 18 34  1  0  0  0  0
 18 35  1  0  0  0  0
 20 36  1  0  0  0  0
 20 37  1  0  0  0  0
 20 38  1  0  0  0  0
M  END
