 xtb: 6.7.1 (edcfbbe)
          04092505203D

 41 40  0     0  0            999 V2000
    5.3997   -0.3008   -0.7493 C   0  0  0  0  0  0  0  0  0  0  0  0
    4.3888   -0.9395    0.1834 C   0  0  0  0  0  0  0  0  0  0  0  0
    3.3889    0.0147    0.5912 O   0  0  0  0  0  0  0  0  0  0  0  0
    1.9876    0.1514   -0.1524 P   0  0  0  0  0  0  0  0  0  0  0  0
    2.0642    0.4072   -2.0987 S   0  0  0  0  0  0  0  0  0  0  0  0
    1.3243    1.2963    0.7132 O   0  0  0  0  0  0  0  0  0  0  0  0
    1.4147    2.6856    0.3447 C   0  0  0  0  0  0  0  0  0  0  0  0
    2.8343    3.2000    0.4421 C   0  0  0  0  0  0  0  0  0  0  0  0
    1.0064   -1.5834    0.5139 S   0  0  0  0  0  0  0  0  0  0  0  0
   -0.1475   -1.8924   -0.8696 C   0  0  0  0  0  0  0  0  0  0  0  0
   -1.8653   -1.9544   -0.3361 S   0  0  0  0  0  0  0  0  0  0  0  0
   -2.0771    0.1079    0.1478 P   0  0  0  0  0  0  0  0  0  0  0  0
   -1.3599    1.3154   -1.2216 S   0  0  0  0  0  0  0  0  0  0  0  0
   -1.3699    0.4181    1.5218 O   0  0  0  0  0  0  0  0  0  0  0  0
   -1.8357    0.0432    2.8427 C   0  0  0  0  0  0  0  0  0  0  0  0
   -1.8761   -1.4562    3.0529 C   0  0  0  0  0  0  0  0  0  0  0  0
   -3.6096    0.2402    0.5350 O   0  0  0  0  0  0  0  0  0  0  0  0
   -4.7057   -0.2990   -0.2285 C   0  0  0  0  0  0  0  0  0  0  0  0
   -4.7301    0.2067   -1.6552 C   0  0  0  0  0  0  0  0  0  0  0  0
    5.8577    0.5606   -0.2713 H   0  0  0  0  0  0  0  0  0  0  0  0
    6.1678   -1.0269   -0.9946 H   0  0  0  0  0  0  0  0  0  0  0  0
    4.9122    0.0227   -1.6665 H   0  0  0  0  0  0  0  0  0  0  0  0
    4.8556   -1.2634    1.1154 H   0  0  0  0  0  0  0  0  0  0  0  0
    3.9003   -1.7933   -0.2953 H   0  0  0  0  0  0  0  0  0  0  0  0
    1.0221    2.8013   -0.6715 H   0  0  0  0  0  0  0  0  0  0  0  0
    0.7448    3.1842    1.0470 H   0  0  0  0  0  0  0  0  0  0  0  0
    3.2360    3.0057    1.4332 H   0  0  0  0  0  0  0  0  0  0  0  0
    3.4571    2.6972   -0.2971 H   0  0  0  0  0  0  0  0  0  0  0  0
    2.8436    4.2675    0.2457 H   0  0  0  0  0  0  0  0  0  0  0  0
    0.0773   -2.8716   -1.2845 H   0  0  0  0  0  0  0  0  0  0  0  0
   -0.0127   -1.1053   -1.6176 H   0  0  0  0  0  0  0  0  0  0  0  0
   -1.1056    0.5177    3.5007 H   0  0  0  0  0  0  0  0  0  0  0  0
   -2.8201    0.4900    2.9928 H   0  0  0  0  0  0  0  0  0  0  0  0
   -0.9157   -1.9008    2.8003 H   0  0  0  0  0  0  0  0  0  0  0  0
   -2.0960   -1.6559    4.0971 H   0  0  0  0  0  0  0  0  0  0  0  0
   -2.6483   -1.9109    2.4365 H   0  0  0  0  0  0  0  0  0  0  0  0
   -4.6328   -1.3896   -0.2068 H   0  0  0  0  0  0  0  0  0  0  0  0
   -5.5873    0.0277    0.3260 H   0  0  0  0  0  0  0  0  0  0  0  0
   -5.6155   -0.1701   -2.1566 H   0  0  0  0  0  0  0  0  0  0  0  0
   -4.7399    1.2940   -1.6735 H   0  0  0  0  0  0  0  0  0  0  0  0
   -3.8459   -0.1358   -2.1908 H   0  0  0  0  0  0  0  0  0  0  0  0
  1  2  1  0  0  0  0
  2  3  1  0  0  0  0
  3  4  2  0  0  0  0
  4  5  2  0  0  0  0
  4  6  2  0  0  0  0
  6  7  1  0  0  0  0
  7  8  1  0  0  0  0
  4  9  1  0  0  0  0
  9 10  1  0  0  0  0
 10 11  1  0  0  0  0
 11 12  1  0  0  0  0
 12 13  2  0  0  0  0
 12 14  2  0  0  0  0
 14 15  1  0  0  0  0
 15 16  1  0  0  0  0
 12 17  2  0  0  0  0
 17 18  1  0  0  0  0
 18 19  1  0  0  0  0
  1 20  1  0  0  0  0
  1 21  1  0  0  0  0
  1 22  1  0  0  0  0
  2 23  1  0  0  0  0
  2 24  1  0  0  0  0
  7 25  1  0  0  0  0
  7 26  1  0  0  0  0
  8 27  1  0  0  0  0
  8 28  1  0  0  0  0
  8 29  1  0  0  0  0
 10 30  1  0  0  0  0
 10 31  1  0  0  0  0
 15 32  1  0  0  0  0
 15 33  1  0  0  0  0
 16 34  1  0  0  0  0
 16 35  1  0  0  0  0
 16 36  1  0  0  0  0
 18 37  1  0  0  0  0
 18 38  1  0  0  0  0
 19 39  1  0  0  0  0
 19 40  1  0  0  0  0
 19 41  1  0  0  0  0
M  END
