 xtb: 6.7.1 (edcfbbe)
          04092505213D

 41 40  0     0  0            999 V2000
    2.6807    0.2802   -3.4698 C   0  0  0  0  0  0  0  0  0  0  0  0
    3.0442   -0.2898   -2.1152 C   0  0  0  0  0  0  0  0  0  0  0  0
    2.5924    0.6480   -1.1065 O   0  0  0  0  0  0  0  0  0  0  0  0
    2.3323    0.2431    0.3890 P   0  0  0  0  0  0  0  0  0  0  0  0
    1.6667    1.7614    1.4232 S   0  0  0  0  0  0  0  0  0  0  0  0
    3.7784   -0.3142    0.7771 O   0  0  0  0  0  0  0  0  0  0  0  0
    4.0876   -1.1317    1.9199 C   0  0  0  0  0  0  0  0  0  0  0  0
    3.7582   -0.4547    3.2345 C   0  0  0  0  0  0  0  0  0  0  0  0
    1.1423   -1.5298    0.4143 S   0  0  0  0  0  0  0  0  0  0  0  0
   -0.1908   -0.9807    1.5299 C   0  0  0  0  0  0  0  0  0  0  0  0
   -1.8491   -1.3860    0.9408 S   0  0  0  0  0  0  0  0  0  0  0  0
   -2.1300    0.0164   -0.6491 P   0  0  0  0  0  0  0  0  0  0  0  0
   -0.5554    0.9084   -1.3936 S   0  0  0  0  0  0  0  0  0  0  0  0
   -3.3143    0.9441   -0.1168 O   0  0  0  0  0  0  0  0  0  0  0  0
   -3.3100    1.6548    1.1317 C   0  0  0  0  0  0  0  0  0  0  0  0
   -2.2890    2.7744    1.1666 C   0  0  0  0  0  0  0  0  0  0  0  0
   -2.8434   -0.8094   -1.7795 O   0  0  0  0  0  0  0  0  0  0  0  0
   -4.0326   -1.6120   -1.5619 C   0  0  0  0  0  0  0  0  0  0  0  0
   -5.2762   -0.8500   -1.9713 C   0  0  0  0  0  0  0  0  0  0  0  0
    1.6051    0.4313   -3.5269 H   0  0  0  0  0  0  0  0  0  0  0  0
    3.1714    1.2383   -3.6147 H   0  0  0  0  0  0  0  0  0  0  0  0
    2.9922   -0.4110   -4.2461 H   0  0  0  0  0  0  0  0  0  0  0  0
    4.1234   -0.4089   -1.9988 H   0  0  0  0  0  0  0  0  0  0  0  0
    2.5502   -1.2516   -1.9449 H   0  0  0  0  0  0  0  0  0  0  0  0
    3.5453   -2.0767    1.8216 H   0  0  0  0  0  0  0  0  0  0  0  0
    5.1601   -1.3095    1.8220 H   0  0  0  0  0  0  0  0  0  0  0  0
    4.0883   -1.0837    4.0549 H   0  0  0  0  0  0  0  0  0  0  0  0
    4.2543    0.5108    3.2972 H   0  0  0  0  0  0  0  0  0  0  0  0
    2.6852   -0.2907    3.3178 H   0  0  0  0  0  0  0  0  0  0  0  0
   -0.0823    0.0975    1.6792 H   0  0  0  0  0  0  0  0  0  0  0  0
   -0.0918   -1.5210    2.4685 H   0  0  0  0  0  0  0  0  0  0  0  0
   -4.3249    2.0499    1.2066 H   0  0  0  0  0  0  0  0  0  0  0  0
   -3.1338    0.9386    1.9404 H   0  0  0  0  0  0  0  0  0  0  0  0
   -2.4010    3.3370    2.0879 H   0  0  0  0  0  0  0  0  0  0  0  0
   -1.2726    2.3843    1.1222 H   0  0  0  0  0  0  0  0  0  0  0  0
   -2.4309    3.4409    0.3193 H   0  0  0  0  0  0  0  0  0  0  0  0
   -3.8825   -2.4937   -2.1872 H   0  0  0  0  0  0  0  0  0  0  0  0
   -4.0739   -1.9091   -0.5106 H   0  0  0  0  0  0  0  0  0  0  0  0
   -5.3988    0.0345   -1.3524 H   0  0  0  0  0  0  0  0  0  0  0  0
   -5.1966   -0.5399   -3.0096 H   0  0  0  0  0  0  0  0  0  0  0  0
   -6.1418   -1.4943   -1.8540 H   0  0  0  0  0  0  0  0  0  0  0  0
  1  2  1  0  0  0  0
  2  3  1  0  0  0  0
  3  4  2  0  0  0  0
  4  5  2  0  0  0  0
  4  6  2  0  0  0  0
  6  7  1  0  0  0  0
  7  8  1  0  0  0  0
  4  9  1  0  0  0  0
  9 10  1  0  0  0  0
 10 11  1  0  0  0  0
 11 12  1  0  0  0  0
 12 13  2  0  0  0  0
 12 14  2  0  0  0  0
 14 15  1  0  0  0  0
 15 16  1  0  0  0  0
 12 17  2  0  0  0  0
 17 18  1  0  0  0  0
 18 19  1  0  0  0  0
  1 20  1  0  0  0  0
  1 21  1  0  0  0  0
  1 22  1  0  0  0  0
  2 23  1  0  0  0  0
  2 24  1  0  0  0  0
  7 25  1  0  0  0  0
  7 26  1  0  0  0  0
  8 27  1  0  0  0  0
  8 28  1  0  0  0  0
  8 29  1  0  0  0  0
 10 30  1  0  0  0  0
 10 31  1  0  0  0  0
 15 32  1  0  0  0  0
 15 33  1  0  0  0  0
 16 34  1  0  0  0  0
 16 35  1  0  0  0  0
 16 36  1  0  0  0  0
 18 37  1  0  0  0  0
 18 38  1  0  0  0  0
 19 39  1  0  0  0  0
 19 40  1  0  0  0  0
 19 41  1  0  0  0  0
M  END
