 xtb: 6.7.1 (edcfbbe)
          04092505213D

 41 40  0     0  0            999 V2000
    4.5424   -0.9684   -2.2001 C   0  0  0  0  0  0  0  0  0  0  0  0
    3.8192   -2.0045   -1.3641 C   0  0  0  0  0  0  0  0  0  0  0  0
    3.3450   -1.4759   -0.1122 O   0  0  0  0  0  0  0  0  0  0  0  0
    2.4104   -0.2118    0.0520 P   0  0  0  0  0  0  0  0  0  0  0  0
    3.2175    1.5779   -0.0441 S   0  0  0  0  0  0  0  0  0  0  0  0
    1.8481   -0.5928    1.4808 O   0  0  0  0  0  0  0  0  0  0  0  0
    1.5691    0.3543    2.5336 C   0  0  0  0  0  0  0  0  0  0  0  0
    0.2758   -0.0431    3.2148 C   0  0  0  0  0  0  0  0  0  0  0  0
    0.8582   -0.5844   -1.3652 S   0  0  0  0  0  0  0  0  0  0  0  0
    0.2505    1.1141   -1.4788 C   0  0  0  0  0  0  0  0  0  0  0  0
   -0.6861    1.6304   -0.0186 S   0  0  0  0  0  0  0  0  0  0  0  0
   -2.2956    0.2760   -0.2935 P   0  0  0  0  0  0  0  0  0  0  0  0
   -2.8366   -0.0505   -2.1418 S   0  0  0  0  0  0  0  0  0  0  0  0
   -3.4937    0.8612    0.5578 O   0  0  0  0  0  0  0  0  0  0  0  0
   -3.5216    0.9795    2.0019 C   0  0  0  0  0  0  0  0  0  0  0  0
   -2.9645    2.3115    2.4609 C   0  0  0  0  0  0  0  0  0  0  0  0
   -1.7533   -0.9919    0.5198 O   0  0  0  0  0  0  0  0  0  0  0  0
   -1.9632   -2.3449    0.0792 C   0  0  0  0  0  0  0  0  0  0  0  0
   -3.3691   -2.8082    0.4018 C   0  0  0  0  0  0  0  0  0  0  0  0
    5.3436   -0.5100   -1.6249 H   0  0  0  0  0  0  0  0  0  0  0  0
    4.9593   -1.4431   -3.0825 H   0  0  0  0  0  0  0  0  0  0  0  0
    3.8511   -0.1864   -2.5118 H   0  0  0  0  0  0  0  0  0  0  0  0
    4.4894   -2.8115   -1.0625 H   0  0  0  0  0  0  0  0  0  0  0  0
    2.9660   -2.4170   -1.9099 H   0  0  0  0  0  0  0  0  0  0  0  0
    2.4118    0.3117    3.2276 H   0  0  0  0  0  0  0  0  0  0  0  0
    1.5091    1.3628    2.1110 H   0  0  0  0  0  0  0  0  0  0  0  0
    0.3684   -1.0408    3.6338 H   0  0  0  0  0  0  0  0  0  0  0  0
    0.0587    0.6655    4.0071 H   0  0  0  0  0  0  0  0  0  0  0  0
   -0.5380   -0.0391    2.4950 H   0  0  0  0  0  0  0  0  0  0  0  0
   -0.3942    1.1585   -2.3561 H   0  0  0  0  0  0  0  0  0  0  0  0
    1.0954    1.7989   -1.5631 H   0  0  0  0  0  0  0  0  0  0  0  0
   -4.5813    0.8897    2.2471 H   0  0  0  0  0  0  0  0  0  0  0  0
   -2.9688    0.1444    2.4375 H   0  0  0  0  0  0  0  0  0  0  0  0
   -1.9071    2.3939    2.2171 H   0  0  0  0  0  0  0  0  0  0  0  0
   -3.4957    3.1253    1.9751 H   0  0  0  0  0  0  0  0  0  0  0  0
   -3.0888    2.3945    3.5361 H   0  0  0  0  0  0  0  0  0  0  0  0
   -1.7742   -2.3973   -0.9976 H   0  0  0  0  0  0  0  0  0  0  0  0
   -1.2069   -2.9223    0.6131 H   0  0  0  0  0  0  0  0  0  0  0  0
   -4.0894   -2.1848   -0.1275 H   0  0  0  0  0  0  0  0  0  0  0  0
   -3.4913   -3.8377    0.0806 H   0  0  0  0  0  0  0  0  0  0  0  0
   -3.5581   -2.7392    1.4698 H   0  0  0  0  0  0  0  0  0  0  0  0
  1  2  1  0  0  0  0
  2  3  1  0  0  0  0
  3  4  2  0  0  0  0
  4  5  2  0  0  0  0
  4  6  2  0  0  0  0
  6  7  1  0  0  0  0
  7  8  1  0  0  0  0
  4  9  1  0  0  0  0
  9 10  1  0  0  0  0
 10 11  1  0  0  0  0
 11 12  1  0  0  0  0
 12 13  2  0  0  0  0
 12 14  2  0  0  0  0
 14 15  1  0  0  0  0
 15 16  1  0  0  0  0
 12 17  1  0  0  0  0
 17 18  1  0  0  0  0
 18 19  1  0  0  0  0
  1 20  1  0  0  0  0
  1 21  1  0  0  0  0
  1 22  1  0  0  0  0
  2 23  1  0  0  0  0
  2 24  1  0  0  0  0
  7 25  1  0  0  0  0
  7 26  1  0  0  0  0
  8 27  1  0  0  0  0
  8 28  1  0  0  0  0
  8 29  1  0  0  0  0
 10 30  1  0  0  0  0
 10 31  1  0  0  0  0
 15 32  1  0  0  0  0
 15 33  1  0  0  0  0
 16 34  1  0  0  0  0
 16 35  1  0  0  0  0
 16 36  1  0  0  0  0
 18 37  1  0  0  0  0
 18 38  1  0  0  0  0
 19 39  1  0  0  0  0
 19 40  1  0  0  0  0
 19 41  1  0  0  0  0
M  END
