 xtb: 6.7.1 (edcfbbe)
          04092507313D

 38 37  0     0  0            999 V2000
    4.1934   -3.7230   -1.0505 C   0  0  0  0  0  0  0  0  0  0  0  0
    3.1600   -2.9393   -1.8440 C   0  0  0  0  0  0  0  0  0  0  0  0
    2.8544   -1.6872   -1.2004 O   0  0  0  0  0  0  0  0  0  0  0  0
    1.9396   -1.6738   -0.2543 C   0  0  0  0  0  0  0  0  0  0  0  0
    1.3203   -2.6425    0.1252 O   0  0  0  0  0  0  0  0  0  0  0  0
    1.7132   -0.2672    0.2709 C   0  0  0  0  0  0  0  0  0  0  0  0
    0.8974    0.5167   -0.7634 C   0  0  0  0  0  0  0  0  0  0  0  0
    1.5025    0.6988   -1.6549 H   0  0  0  0  0  0  0  0  0  0  0  0
    0.4094    1.8350   -0.1941 C   0  0  0  0  0  0  0  0  0  0  0  0
   -0.7727    2.1040   -0.0911 O   0  0  0  0  0  0  0  0  0  0  0  0
    1.3846    2.6112    0.1712 O   0  0  0  0  0  0  0  0  0  0  0  0
    1.0480    3.8779    0.7846 C   0  0  0  0  0  0  0  0  0  0  0  0
    2.3424    4.5687    1.1615 C   0  0  0  0  0  0  0  0  0  0  0  0
   -0.5628   -0.4056   -1.3613 S   0  0  0  0  0  0  0  0  0  0  0  0
   -1.9274   -0.1480    0.2455 P   0  0  0  0  0  0  0  0  0  0  0  0
   -1.3391    0.1788    2.0965 S   0  0  0  0  0  0  0  0  0  0  0  0
   -3.1611    0.6838   -0.2991 O   0  0  0  0  0  0  0  0  0  0  0  0
   -3.5627    1.9752    0.1641 C   0  0  0  0  0  0  0  0  0  0  0  0
   -2.6828   -1.5583    0.1235 O   0  0  0  0  0  0  0  0  0  0  0  0
   -2.0701   -2.7593    0.5985 C   0  0  0  0  0  0  0  0  0  0  0  0
    5.0884   -3.1242   -0.9064 H   0  0  0  0  0  0  0  0  0  0  0  0
    3.7892   -3.9974   -0.0787 H   0  0  0  0  0  0  0  0  0  0  0  0
    4.4508   -4.6273   -1.5920 H   0  0  0  0  0  0  0  0  0  0  0  0
    2.2342   -3.5119   -1.9483 H   0  0  0  0  0  0  0  0  0  0  0  0
    3.5428   -2.6536   -2.8237 H   0  0  0  0  0  0  0  0  0  0  0  0
    2.6690    0.2344    0.4177 H   0  0  0  0  0  0  0  0  0  0  0  0
    1.1714   -0.3328    1.2164 H   0  0  0  0  0  0  0  0  0  0  0  0
    0.4673    4.4620    0.0650 H   0  0  0  0  0  0  0  0  0  0  0  0
    0.4197    3.6755    1.6572 H   0  0  0  0  0  0  0  0  0  0  0  0
    2.9548    4.7210    0.2781 H   0  0  0  0  0  0  0  0  0  0  0  0
    2.1148    5.5299    1.6098 H   0  0  0  0  0  0  0  0  0  0  0  0
    2.8948    3.9649    1.8746 H   0  0  0  0  0  0  0  0  0  0  0  0
   -3.1801    2.1549    1.1701 H   0  0  0  0  0  0  0  0  0  0  0  0
   -4.6504    1.9673    0.1662 H   0  0  0  0  0  0  0  0  0  0  0  0
   -3.1785    2.7342   -0.5145 H   0  0  0  0  0  0  0  0  0  0  0  0
   -1.0924   -2.9135    0.1376 H   0  0  0  0  0  0  0  0  0  0  0  0
   -2.7500   -3.5620    0.3268 H   0  0  0  0  0  0  0  0  0  0  0  0
   -1.9486   -2.7089    1.6818 H   0  0  0  0  0  0  0  0  0  0  0  0
  1  2  1  0  0  0  0
  2  3  1  0  0  0  0
  3  4  1  0  0  0  0
  4  5  2  0  0  0  0
  4  6  1  0  0  0  0
  6  7  1  0  0  0  0
  7  8  1  0  0  0  0
  7  9  1  0  0  0  0
  9 10  2  0  0  0  0
  9 11  4  0  0  0  0
 11 12  1  0  0  0  0
 12 13  1  0  0  0  0
  7 14  1  0  0  0  0
 14 15  1  0  0  0  0
 15 16  2  0  0  0  0
 15 17  2  0  0  0  0
 17 18  1  0  0  0  0
 15 19  1  0  0  0  0
 19 20  1  0  0  0  0
  1 21  1  0  0  0  0
  1 22  1  0  0  0  0
  1 23  1  0  0  0  0
  2 24  1  0  0  0  0
  2 25  1  0  0  0  0
  6 26  1  0  0  0  0
  6 27  1  0  0  0  0
 12 28  1  0  0  0  0
 12 29  1  0  0  0  0
 13 30  1  0  0  0  0
 13 31  1  0  0  0  0
 13 32  1  0  0  0  0
 18 33  1  0  0  0  0
 18 34  1  0  0  0  0
 18 35  1  0  0  0  0
 20 36  1  0  0  0  0
 20 37  1  0  0  0  0
 20 38  1  0  0  0  0
M  END
