 xtb: 6.7.1 (edcfbbe)
          04032520063D

 16 17  0     0  0            999 V2000
   -2.5920   -0.6932   -0.0001 C   0  0  0  0  0  0  0  0  0  0  0  0
   -2.5921    0.6931   -0.0000 C   0  0  0  0  0  0  0  0  0  0  0  0
   -1.4006    1.4149    0.0001 C   0  0  0  0  0  0  0  0  0  0  0  0
   -0.2204    0.7006    0.0000 C   0  0  0  0  0  0  0  0  0  0  0  0
   -0.2204   -0.7006   -0.0000 C   0  0  0  0  0  0  0  0  0  0  0  0
   -1.4006   -1.4149   -0.0001 C   0  0  0  0  0  0  0  0  0  0  0  0
    1.1861   -1.1562    0.0001 C   0  0  0  0  0  0  0  0  0  0  0  0
    1.6372   -2.2800    0.0000 O   0  0  0  0  0  0  0  0  0  0  0  0
    1.9464    0.0000   -0.0000 N   0  0  0  0  0  0  0  0  0  0  0  0
    1.1861    1.1563   -0.0000 C   0  0  0  0  0  0  0  0  0  0  0  0
    1.6372    2.2801   -0.0000 O   0  0  0  0  0  0  0  0  0  0  0  0
   -3.5306   -1.2244    0.0003 H   0  0  0  0  0  0  0  0  0  0  0  0
   -3.5306    1.2243    0.0001 H   0  0  0  0  0  0  0  0  0  0  0  0
   -1.3905    2.4931    0.0002 H   0  0  0  0  0  0  0  0  0  0  0  0
   -1.3904   -2.4931    0.0001 H   0  0  0  0  0  0  0  0  0  0  0  0
    2.9578    0.0000   -0.0001 H   0  0  0  0  0  0  0  0  0  0  0  0
  1  2  4  0  0  0  0
  2  3  4  0  0  0  0
  3  4  4  0  0  0  0
  4  5  4  0  0  0  0
  1  6  4  0  0  0  0
  5  6  4  0  0  0  0
  5  7  1  0  0  0  0
  7  8  2  0  0  0  0
  7  9  1  0  0  0  0
  4 10  1  0  0  0  0
  9 10  1  0  0  0  0
 10 11  2  0  0  0  0
  1 12  1  0  0  0  0
  2 13  1  0  0  0  0
  3 14  1  0  0  0  0
  6 15  1  0  0  0  0
  9 16  1  0  0  0  0
M  END
