 xtb: 6.7.1 (edcfbbe)
          04092505213D

 41 40  0     0  0            999 V2000
    4.5597    1.6537   -1.9485 C   0  0  0  0  0  0  0  0  0  0  0  0
    4.9602    1.1391   -0.5811 C   0  0  0  0  0  0  0  0  0  0  0  0
    4.2163   -0.0339   -0.2047 O   0  0  0  0  0  0  0  0  0  0  0  0
    2.6535   -0.0016    0.0898 P   0  0  0  0  0  0  0  0  0  0  0  0
    2.0533    1.5798    1.0866 S   0  0  0  0  0  0  0  0  0  0  0  0
    2.4438   -1.4004    0.7961 O   0  0  0  0  0  0  0  0  0  0  0  0
    2.5383   -1.5934    2.2245 C   0  0  0  0  0  0  0  0  0  0  0  0
    1.6011   -2.7193    2.6099 C   0  0  0  0  0  0  0  0  0  0  0  0
    1.7239   -0.3909   -1.7587 S   0  0  0  0  0  0  0  0  0  0  0  0
    0.0775    0.1652   -1.2770 C   0  0  0  0  0  0  0  0  0  0  0  0
   -0.6439   -0.9649   -0.0255 S   0  0  0  0  0  0  0  0  0  0  0  0
   -2.6206   -0.2363   -0.1109 P   0  0  0  0  0  0  0  0  0  0  0  0
   -3.9425   -1.0863    1.0562 S   0  0  0  0  0  0  0  0  0  0  0  0
   -2.8611   -0.3832   -1.6737 O   0  0  0  0  0  0  0  0  0  0  0  0
   -4.1904   -0.4270   -2.2341 C   0  0  0  0  0  0  0  0  0  0  0  0
   -4.8995    0.9051   -2.1105 C   0  0  0  0  0  0  0  0  0  0  0  0
   -2.4941    1.3494    0.0436 O   0  0  0  0  0  0  0  0  0  0  0  0
   -2.6769    2.0028    1.3096 C   0  0  0  0  0  0  0  0  0  0  0  0
   -1.5873    1.6475    2.3005 C   0  0  0  0  0  0  0  0  0  0  0  0
    3.5399    2.0349   -1.9194 H   0  0  0  0  0  0  0  0  0  0  0  0
    5.2283    2.4576   -2.2395 H   0  0  0  0  0  0  0  0  0  0  0  0
    4.6128    0.8540   -2.6830 H   0  0  0  0  0  0  0  0  0  0  0  0
    4.8013    1.9077    0.1823 H   0  0  0  0  0  0  0  0  0  0  0  0
    5.9988    0.8066   -0.5623 H   0  0  0  0  0  0  0  0  0  0  0  0
    3.5771   -1.8383    2.4583 H   0  0  0  0  0  0  0  0  0  0  0  0
    2.2658   -0.6576    2.7249 H   0  0  0  0  0  0  0  0  0  0  0  0
    0.5781   -2.4602    2.3484 H   0  0  0  0  0  0  0  0  0  0  0  0
    1.8746   -3.6268    2.0798 H   0  0  0  0  0  0  0  0  0  0  0  0
    1.6682   -2.8902    3.6793 H   0  0  0  0  0  0  0  0  0  0  0  0
   -0.5393    0.1465   -2.1708 H   0  0  0  0  0  0  0  0  0  0  0  0
    0.1450    1.1658   -0.8487 H   0  0  0  0  0  0  0  0  0  0  0  0
   -4.0245   -0.7048   -3.2757 H   0  0  0  0  0  0  0  0  0  0  0  0
   -4.7548   -1.2135   -1.7235 H   0  0  0  0  0  0  0  0  0  0  0  0
   -4.2896    1.6987   -2.5340 H   0  0  0  0  0  0  0  0  0  0  0  0
   -5.8478    0.8570   -2.6364 H   0  0  0  0  0  0  0  0  0  0  0  0
   -5.0888    1.1270   -1.0611 H   0  0  0  0  0  0  0  0  0  0  0  0
   -2.6685    3.0654    1.0641 H   0  0  0  0  0  0  0  0  0  0  0  0
   -3.6558    1.7159    1.7070 H   0  0  0  0  0  0  0  0  0  0  0  0
   -1.6211    0.5795    2.5177 H   0  0  0  0  0  0  0  0  0  0  0  0
   -0.6039    1.8950    1.9061 H   0  0  0  0  0  0  0  0  0  0  0  0
   -1.7448    2.1974    3.2227 H   0  0  0  0  0  0  0  0  0  0  0  0
  1  2  1  0  0  0  0
  2  3  1  0  0  0  0
  3  4  2  0  0  0  0
  4  5  2  0  0  0  0
  4  6  2  0  0  0  0
  6  7  1  0  0  0  0
  7  8  1  0  0  0  0
  4  9  1  0  0  0  0
  9 10  1  0  0  0  0
 10 11  1  0  0  0  0
 11 12  1  0  0  0  0
 12 13  2  0  0  0  0
 12 14  2  0  0  0  0
 14 15  1  0  0  0  0
 15 16  1  0  0  0  0
 12 17  1  0  0  0  0
 17 18  1  0  0  0  0
 18 19  1  0  0  0  0
  1 20  1  0  0  0  0
  1 21  1  0  0  0  0
  1 22  1  0  0  0  0
  2 23  1  0  0  0  0
  2 24  1  0  0  0  0
  7 25  1  0  0  0  0
  7 26  1  0  0  0  0
  8 27  1  0  0  0  0
  8 28  1  0  0  0  0
  8 29  1  0  0  0  0
 10 30  1  0  0  0  0
 10 31  1  0  0  0  0
 15 32  1  0  0  0  0
 15 33  1  0  0  0  0
 16 34  1  0  0  0  0
 16 35  1  0  0  0  0
 16 36  1  0  0  0  0
 18 37  1  0  0  0  0
 18 38  1  0  0  0  0
 19 39  1  0  0  0  0
 19 40  1  0  0  0  0
 19 41  1  0  0  0  0
M  END
