 xtb: 6.7.1 (edcfbbe)
          04092505213D

 41 40  0     0  0            999 V2000
    1.4619    0.9548    3.2760 C   0  0  0  0  0  0  0  0  0  0  0  0
    1.4136    1.4386    1.8390 C   0  0  0  0  0  0  0  0  0  0  0  0
    2.3458    0.7117    1.0193 O   0  0  0  0  0  0  0  0  0  0  0  0
    2.0232   -0.6337    0.2347 P   0  0  0  0  0  0  0  0  0  0  0  0
    1.0987   -2.0638    1.2135 S   0  0  0  0  0  0  0  0  0  0  0  0
    3.4659   -1.0213   -0.2894 O   0  0  0  0  0  0  0  0  0  0  0  0
    4.3601   -1.8690    0.4586 C   0  0  0  0  0  0  0  0  0  0  0  0
    4.8378   -1.2069    1.7338 C   0  0  0  0  0  0  0  0  0  0  0  0
    1.2007   -0.0081   -1.6103 S   0  0  0  0  0  0  0  0  0  0  0  0
   -0.1174   -1.2517   -1.8059 C   0  0  0  0  0  0  0  0  0  0  0  0
   -1.7496   -0.5502   -2.1861 S   0  0  0  0  0  0  0  0  0  0  0  0
   -2.1165    0.6352   -0.4587 P   0  0  0  0  0  0  0  0  0  0  0  0
   -3.9797    1.1945   -0.2495 S   0  0  0  0  0  0  0  0  0  0  0  0
   -1.0249    1.7921   -0.5222 O   0  0  0  0  0  0  0  0  0  0  0  0
   -1.0536    2.7719   -1.5790 C   0  0  0  0  0  0  0  0  0  0  0  0
   -1.7535    4.0360   -1.1209 C   0  0  0  0  0  0  0  0  0  0  0  0
   -1.4727   -0.1344    0.7708 O   0  0  0  0  0  0  0  0  0  0  0  0
   -2.2901   -0.9390    1.6416 C   0  0  0  0  0  0  0  0  0  0  0  0
   -2.7005   -2.2423    0.9874 C   0  0  0  0  0  0  0  0  0  0  0  0
    1.1633   -0.0899    3.3332 H   0  0  0  0  0  0  0  0  0  0  0  0
    2.4685    1.0562    3.6731 H   0  0  0  0  0  0  0  0  0  0  0  0
    0.7789    1.5484    3.8751 H   0  0  0  0  0  0  0  0  0  0  0  0
    1.7387    2.4780    1.7608 H   0  0  0  0  0  0  0  0  0  0  0  0
    0.4068    1.3430    1.4269 H   0  0  0  0  0  0  0  0  0  0  0  0
    3.8419   -2.8075    0.6809 H   0  0  0  0  0  0  0  0  0  0  0  0
    5.1817   -2.0545   -0.2344 H   0  0  0  0  0  0  0  0  0  0  0  0
    5.5904   -1.8320    2.2043 H   0  0  0  0  0  0  0  0  0  0  0  0
    5.2621   -0.2309    1.5133 H   0  0  0  0  0  0  0  0  0  0  0  0
    4.0023   -1.0811    2.4210 H   0  0  0  0  0  0  0  0  0  0  0  0
   -0.1721   -1.8432   -0.8887 H   0  0  0  0  0  0  0  0  0  0  0  0
    0.1174   -1.8764   -2.6639 H   0  0  0  0  0  0  0  0  0  0  0  0
   -0.0035    2.9554   -1.8182 H   0  0  0  0  0  0  0  0  0  0  0  0
   -1.5518    2.3440   -2.4559 H   0  0  0  0  0  0  0  0  0  0  0  0
   -1.7182    4.7720   -1.9175 H   0  0  0  0  0  0  0  0  0  0  0  0
   -2.7925    3.8223   -0.8793 H   0  0  0  0  0  0  0  0  0  0  0  0
   -1.2644    4.4360   -0.2373 H   0  0  0  0  0  0  0  0  0  0  0  0
   -1.6579   -1.1143    2.5131 H   0  0  0  0  0  0  0  0  0  0  0  0
   -3.1709   -0.3544    1.9247 H   0  0  0  0  0  0  0  0  0  0  0  0
   -3.3137   -2.8100    1.6797 H   0  0  0  0  0  0  0  0  0  0  0  0
   -3.2788   -2.0403    0.0859 H   0  0  0  0  0  0  0  0  0  0  0  0
   -1.8224   -2.8303    0.7306 H   0  0  0  0  0  0  0  0  0  0  0  0
  1  2  1  0  0  0  0
  2  3  1  0  0  0  0
  3  4  2  0  0  0  0
  4  5  2  0  0  0  0
  4  6  2  0  0  0  0
  6  7  1  0  0  0  0
  7  8  1  0  0  0  0
  4  9  1  0  0  0  0
  9 10  1  0  0  0  0
 10 11  1  0  0  0  0
 11 12  1  0  0  0  0
 12 13  2  0  0  0  0
 12 14  1  0  0  0  0
 14 15  1  0  0  0  0
 15 16  1  0  0  0  0
 12 17  2  0  0  0  0
 17 18  1  0  0  0  0
 18 19  1  0  0  0  0
  1 20  1  0  0  0  0
  1 21  1  0  0  0  0
  1 22  1  0  0  0  0
  2 23  1  0  0  0  0
  2 24  1  0  0  0  0
  7 25  1  0  0  0  0
  7 26  1  0  0  0  0
  8 27  1  0  0  0  0
  8 28  1  0  0  0  0
  8 29  1  0  0  0  0
 10 30  1  0  0  0  0
 10 31  1  0  0  0  0
 15 32  1  0  0  0  0
 15 33  1  0  0  0  0
 16 34  1  0  0  0  0
 16 35  1  0  0  0  0
 16 36  1  0  0  0  0
 18 37  1  0  0  0  0
 18 38  1  0  0  0  0
 19 39  1  0  0  0  0
 19 40  1  0  0  0  0
 19 41  1  0  0  0  0
M  END
