 xtb: 6.7.1 (edcfbbe)
          04092505213D

 41 40  0     0  0            999 V2000
    4.8673   -1.5492    0.6642 C   0  0  0  0  0  0  0  0  0  0  0  0
    4.4975   -1.5182   -0.8047 C   0  0  0  0  0  0  0  0  0  0  0  0
    3.0715   -1.4334   -1.0046 O   0  0  0  0  0  0  0  0  0  0  0  0
    2.2262   -0.1800   -0.5295 P   0  0  0  0  0  0  0  0  0  0  0  0
    3.0877    1.5781   -0.6505 S   0  0  0  0  0  0  0  0  0  0  0  0
    1.7392   -0.5919    0.9303 O   0  0  0  0  0  0  0  0  0  0  0  0
    1.6878    0.2922    2.0716 C   0  0  0  0  0  0  0  0  0  0  0  0
    0.5821   -0.1818    2.9917 C   0  0  0  0  0  0  0  0  0  0  0  0
    0.5826   -0.5553   -1.8061 S   0  0  0  0  0  0  0  0  0  0  0  0
   -0.0973    1.1287   -1.7599 C   0  0  0  0  0  0  0  0  0  0  0  0
   -0.7192    1.5845   -0.1303 S   0  0  0  0  0  0  0  0  0  0  0  0
   -2.4478    0.3156   -0.1066 P   0  0  0  0  0  0  0  0  0  0  0  0
   -3.1930   -0.0873   -1.8681 S   0  0  0  0  0  0  0  0  0  0  0  0
   -3.4740    1.0613    0.8207 O   0  0  0  0  0  0  0  0  0  0  0  0
   -3.3739    1.2210    2.2604 C   0  0  0  0  0  0  0  0  0  0  0  0
   -2.5060    2.4044    2.6342 C   0  0  0  0  0  0  0  0  0  0  0  0
   -2.0437   -0.9457    0.7816 O   0  0  0  0  0  0  0  0  0  0  0  0
   -1.5903   -2.2082    0.2644 C   0  0  0  0  0  0  0  0  0  0  0  0
   -2.3552   -3.3156    0.9617 C   0  0  0  0  0  0  0  0  0  0  0  0
    4.6297   -0.5901    1.1240 H   0  0  0  0  0  0  0  0  0  0  0  0
    4.3169   -2.3358    1.1740 H   0  0  0  0  0  0  0  0  0  0  0  0
    5.9330   -1.7307    0.7634 H   0  0  0  0  0  0  0  0  0  0  0  0
    4.7760   -2.4421   -1.3132 H   0  0  0  0  0  0  0  0  0  0  0  0
    4.9666   -0.6637   -1.3023 H   0  0  0  0  0  0  0  0  0  0  0  0
    2.6599    0.2443    2.5685 H   0  0  0  0  0  0  0  0  0  0  0  0
    1.5166    1.3157    1.7256 H   0  0  0  0  0  0  0  0  0  0  0  0
   -0.3746   -0.1470    2.4784 H   0  0  0  0  0  0  0  0  0  0  0  0
    0.7742   -1.2027    3.3089 H   0  0  0  0  0  0  0  0  0  0  0  0
    0.5445    0.4653    3.8617 H   0  0  0  0  0  0  0  0  0  0  0  0
   -0.9132    1.1541   -2.4823 H   0  0  0  0  0  0  0  0  0  0  0  0
    0.6830    1.8467   -2.0108 H   0  0  0  0  0  0  0  0  0  0  0  0
   -4.4093    1.3764    2.5675 H   0  0  0  0  0  0  0  0  0  0  0  0
   -2.9951    0.2930    2.6910 H   0  0  0  0  0  0  0  0  0  0  0  0
   -2.5348    2.5362    3.7113 H   0  0  0  0  0  0  0  0  0  0  0  0
   -1.4763    2.2433    2.3222 H   0  0  0  0  0  0  0  0  0  0  0  0
   -2.8745    3.3062    2.1531 H   0  0  0  0  0  0  0  0  0  0  0  0
   -1.7571   -2.2339   -0.8175 H   0  0  0  0  0  0  0  0  0  0  0  0
   -0.5171   -2.2753    0.4629 H   0  0  0  0  0  0  0  0  0  0  0  0
   -3.4165   -3.2290    0.7429 H   0  0  0  0  0  0  0  0  0  0  0  0
   -1.9949   -4.2741    0.6027 H   0  0  0  0  0  0  0  0  0  0  0  0
   -2.2084   -3.2550    2.0362 H   0  0  0  0  0  0  0  0  0  0  0  0
  1  2  1  0  0  0  0
  2  3  1  0  0  0  0
  3  4  2  0  0  0  0
  4  5  2  0  0  0  0
  4  6  2  0  0  0  0
  6  7  1  0  0  0  0
  7  8  1  0  0  0  0
  4  9  1  0  0  0  0
  9 10  1  0  0  0  0
 10 11  1  0  0  0  0
 11 12  1  0  0  0  0
 12 13  2  0  0  0  0
 12 14  2  0  0  0  0
 14 15  1  0  0  0  0
 15 16  1  0  0  0  0
 12 17  2  0  0  0  0
 17 18  1  0  0  0  0
 18 19  1  0  0  0  0
  1 20  1  0  0  0  0
  1 21  1  0  0  0  0
  1 22  1  0  0  0  0
  2 23  1  0  0  0  0
  2 24  1  0  0  0  0
  7 25  1  0  0  0  0
  7 26  1  0  0  0  0
  8 27  1  0  0  0  0
  8 28  1  0  0  0  0
  8 29  1  0  0  0  0
 10 30  1  0  0  0  0
 10 31  1  0  0  0  0
 15 32  1  0  0  0  0
 15 33  1  0  0  0  0
 16 34  1  0  0  0  0
 16 35  1  0  0  0  0
 16 36  1  0  0  0  0
 18 37  1  0  0  0  0
 18 38  1  0  0  0  0
 19 39  1  0  0  0  0
 19 40  1  0  0  0  0
 19 41  1  0  0  0  0
M  END
