 xtb: 6.7.1 (edcfbbe)
          04092505203D

 41 40  0     0  0            999 V2000
    4.5500   -1.1285   -1.9171 C   0  0  0  0  0  0  0  0  0  0  0  0
    4.3744    0.2790   -1.3821 C   0  0  0  0  0  0  0  0  0  0  0  0
    3.5089    0.3100   -0.2311 O   0  0  0  0  0  0  0  0  0  0  0  0
    1.9381    0.5556   -0.3293 P   0  0  0  0  0  0  0  0  0  0  0  0
    1.4335    1.9906   -1.5550 S   0  0  0  0  0  0  0  0  0  0  0  0
    1.5933    0.8683    1.1731 O   0  0  0  0  0  0  0  0  0  0  0  0
    2.1756    0.1580    2.2973 C   0  0  0  0  0  0  0  0  0  0  0  0
    1.6655    0.8182    3.5594 C   0  0  0  0  0  0  0  0  0  0  0  0
    1.1752   -1.3776   -0.8247 S   0  0  0  0  0  0  0  0  0  0  0  0
   -0.1085   -0.9178   -2.0213 C   0  0  0  0  0  0  0  0  0  0  0  0
   -1.8122   -1.2499   -1.4899 S   0  0  0  0  0  0  0  0  0  0  0  0
   -1.8190   -0.3286    0.4382 P   0  0  0  0  0  0  0  0  0  0  0  0
   -0.9379   -1.2499    1.9194 S   0  0  0  0  0  0  0  0  0  0  0  0
   -3.3653   -0.0323    0.6473 O   0  0  0  0  0  0  0  0  0  0  0  0
   -4.4256   -0.9826    0.4260 C   0  0  0  0  0  0  0  0  0  0  0  0
   -4.2154   -2.2874    1.1643 C   0  0  0  0  0  0  0  0  0  0  0  0
   -1.2136    1.1169    0.2325 O   0  0  0  0  0  0  0  0  0  0  0  0
   -1.8988    2.1554   -0.5155 C   0  0  0  0  0  0  0  0  0  0  0  0
   -2.6170    3.0933    0.4308 C   0  0  0  0  0  0  0  0  0  0  0  0
    3.6168   -1.5065   -2.3262 H   0  0  0  0  0  0  0  0  0  0  0  0
    5.3010   -1.1149   -2.7004 H   0  0  0  0  0  0  0  0  0  0  0  0
    4.8748   -1.7915   -1.1198 H   0  0  0  0  0  0  0  0  0  0  0  0
    3.9680    0.9500   -2.1460 H   0  0  0  0  0  0  0  0  0  0  0  0
    5.3204    0.6806   -1.0140 H   0  0  0  0  0  0  0  0  0  0  0  0
    1.8599   -0.8874    2.2437 H   0  0  0  0  0  0  0  0  0  0  0  0
    3.2619    0.2211    2.2160 H   0  0  0  0  0  0  0  0  0  0  0  0
    2.1184    0.3351    4.4188 H   0  0  0  0  0  0  0  0  0  0  0  0
    1.9179    1.8748    3.5580 H   0  0  0  0  0  0  0  0  0  0  0  0
    0.5854    0.7109    3.6185 H   0  0  0  0  0  0  0  0  0  0  0  0
    0.0308   -1.5331   -2.9072 H   0  0  0  0  0  0  0  0  0  0  0  0
    0.0078    0.1438   -2.2594 H   0  0  0  0  0  0  0  0  0  0  0  0
   -5.3146   -0.4605    0.7841 H   0  0  0  0  0  0  0  0  0  0  0  0
   -4.5049   -1.1583   -0.6505 H   0  0  0  0  0  0  0  0  0  0  0  0
   -4.0747   -2.1056    2.2272 H   0  0  0  0  0  0  0  0  0  0  0  0
   -5.0809   -2.9256    1.0187 H   0  0  0  0  0  0  0  0  0  0  0  0
   -3.3312   -2.7966    0.7826 H   0  0  0  0  0  0  0  0  0  0  0  0
   -1.1081    2.6719   -1.0644 H   0  0  0  0  0  0  0  0  0  0  0  0
   -2.5933    1.6898   -1.2193 H   0  0  0  0  0  0  0  0  0  0  0  0
   -3.0732    3.8933   -0.1437 H   0  0  0  0  0  0  0  0  0  0  0  0
   -3.3858    2.5575    0.9819 H   0  0  0  0  0  0  0  0  0  0  0  0
   -1.9090    3.5174    1.1379 H   0  0  0  0  0  0  0  0  0  0  0  0
  1  2  1  0  0  0  0
  2  3  1  0  0  0  0
  3  4  2  0  0  0  0
  4  5  2  0  0  0  0
  4  6  2  0  0  0  0
  6  7  1  0  0  0  0
  7  8  1  0  0  0  0
  4  9  1  0  0  0  0
  9 10  1  0  0  0  0
 10 11  1  0  0  0  0
 11 12  1  0  0  0  0
 12 13  2  0  0  0  0
 12 14  2  0  0  0  0
 14 15  1  0  0  0  0
 15 16  1  0  0  0  0
 12 17  2  0  0  0  0
 17 18  1  0  0  0  0
 18 19  1  0  0  0  0
  1 20  1  0  0  0  0
  1 21  1  0  0  0  0
  1 22  1  0  0  0  0
  2 23  1  0  0  0  0
  2 24  1  0  0  0  0
  7 25  1  0  0  0  0
  7 26  1  0  0  0  0
  8 27  1  0  0  0  0
  8 28  1  0  0  0  0
  8 29  1  0  0  0  0
 10 30  1  0  0  0  0
 10 31  1  0  0  0  0
 15 32  1  0  0  0  0
 15 33  1  0  0  0  0
 16 34  1  0  0  0  0
 16 35  1  0  0  0  0
 16 36  1  0  0  0  0
 18 37  1  0  0  0  0
 18 38  1  0  0  0  0
 19 39  1  0  0  0  0
 19 40  1  0  0  0  0
 19 41  1  0  0  0  0
M  END
