 xtb: 6.7.1 (edcfbbe)
          04092505213D

 41 40  0     0  0            999 V2000
    2.2943    1.8255   -1.3848 C   0  0  0  0  0  0  0  0  0  0  0  0
    2.4228    0.3349   -1.6210 C   0  0  0  0  0  0  0  0  0  0  0  0
    2.9654   -0.3640   -0.4901 O   0  0  0  0  0  0  0  0  0  0  0  0
    2.3173   -0.4470    0.9628 P   0  0  0  0  0  0  0  0  0  0  0  0
    2.3951    1.1265    2.1188 S   0  0  0  0  0  0  0  0  0  0  0  0
    3.1535   -1.6130    1.6118 O   0  0  0  0  0  0  0  0  0  0  0  0
    3.2834   -2.9342    1.0309 C   0  0  0  0  0  0  0  0  0  0  0  0
    4.5980   -3.0662    0.2899 C   0  0  0  0  0  0  0  0  0  0  0  0
    0.3814   -1.2934    0.6219 S   0  0  0  0  0  0  0  0  0  0  0  0
   -0.6222   -0.1206    1.5643 C   0  0  0  0  0  0  0  0  0  0  0  0
   -1.0389    1.3975    0.6589 S   0  0  0  0  0  0  0  0  0  0  0  0
   -2.1256    0.5736   -0.9654 P   0  0  0  0  0  0  0  0  0  0  0  0
   -1.1940   -0.2379   -2.4768 S   0  0  0  0  0  0  0  0  0  0  0  0
   -2.9707    1.8080   -1.4820 O   0  0  0  0  0  0  0  0  0  0  0  0
   -3.8392    2.6019   -0.6356 C   0  0  0  0  0  0  0  0  0  0  0  0
   -3.2144    3.9555   -0.3634 C   0  0  0  0  0  0  0  0  0  0  0  0
   -3.1583   -0.3749   -0.1954 O   0  0  0  0  0  0  0  0  0  0  0  0
   -3.5168   -1.7041   -0.6267 C   0  0  0  0  0  0  0  0  0  0  0  0
   -2.9920   -2.7400    0.3471 C   0  0  0  0  0  0  0  0  0  0  0  0
    1.9625    2.3017   -2.3022 H   0  0  0  0  0  0  0  0  0  0  0  0
    1.5649    2.0292   -0.6016 H   0  0  0  0  0  0  0  0  0  0  0  0
    3.2501    2.2457   -1.0812 H   0  0  0  0  0  0  0  0  0  0  0  0
    3.1343    0.1233   -2.4212 H   0  0  0  0  0  0  0  0  0  0  0  0
    1.4528   -0.1033   -1.8783 H   0  0  0  0  0  0  0  0  0  0  0  0
    3.2382   -3.6132    1.8842 H   0  0  0  0  0  0  0  0  0  0  0  0
    2.4327   -3.1187    0.3684 H   0  0  0  0  0  0  0  0  0  0  0  0
    4.6312   -2.3741   -0.5472 H   0  0  0  0  0  0  0  0  0  0  0  0
    5.4245   -2.8442    0.9593 H   0  0  0  0  0  0  0  0  0  0  0  0
    4.6973   -4.0820   -0.0798 H   0  0  0  0  0  0  0  0  0  0  0  0
   -0.0637    0.2123    2.4396 H   0  0  0  0  0  0  0  0  0  0  0  0
   -1.5369   -0.6370    1.8420 H   0  0  0  0  0  0  0  0  0  0  0  0
   -4.7651    2.7021   -1.2046 H   0  0  0  0  0  0  0  0  0  0  0  0
   -4.0329    2.0573    0.2912 H   0  0  0  0  0  0  0  0  0  0  0  0
   -2.9905    4.4561   -1.3012 H   0  0  0  0  0  0  0  0  0  0  0  0
   -3.9103    4.5600    0.2096 H   0  0  0  0  0  0  0  0  0  0  0  0
   -2.2912    3.8430    0.2015 H   0  0  0  0  0  0  0  0  0  0  0  0
   -4.6076   -1.7110   -0.6649 H   0  0  0  0  0  0  0  0  0  0  0  0
   -3.1126   -1.8722   -1.6300 H   0  0  0  0  0  0  0  0  0  0  0  0
   -3.3616   -2.5397    1.3491 H   0  0  0  0  0  0  0  0  0  0  0  0
   -3.3333   -3.7209    0.0329 H   0  0  0  0  0  0  0  0  0  0  0  0
   -1.9033   -2.7330    0.3557 H   0  0  0  0  0  0  0  0  0  0  0  0
  1  2  1  0  0  0  0
  2  3  1  0  0  0  0
  3  4  2  0  0  0  0
  4  5  2  0  0  0  0
  4  6  2  0  0  0  0
  6  7  1  0  0  0  0
  7  8  1  0  0  0  0
  4  9  1  0  0  0  0
  9 10  1  0  0  0  0
 10 11  1  0  0  0  0
 11 12  1  0  0  0  0
 12 13  2  0  0  0  0
 12 14  2  0  0  0  0
 14 15  1  0  0  0  0
 15 16  1  0  0  0  0
 12 17  1  0  0  0  0
 17 18  1  0  0  0  0
 18 19  1  0  0  0  0
  1 20  1  0  0  0  0
  1 21  1  0  0  0  0
  1 22  1  0  0  0  0
  2 23  1  0  0  0  0
  2 24  1  0  0  0  0
  7 25  1  0  0  0  0
  7 26  1  0  0  0  0
  8 27  1  0  0  0  0
  8 28  1  0  0  0  0
  8 29  1  0  0  0  0
 10 30  1  0  0  0  0
 10 31  1  0  0  0  0
 15 32  1  0  0  0  0
 15 33  1  0  0  0  0
 16 34  1  0  0  0  0
 16 35  1  0  0  0  0
 16 36  1  0  0  0  0
 18 37  1  0  0  0  0
 18 38  1  0  0  0  0
 19 39  1  0  0  0  0
 19 40  1  0  0  0  0
 19 41  1  0  0  0  0
M  END
