 xtb: 6.7.1 (edcfbbe)
          04092505213D

 41 40  0     0  0            999 V2000
    3.1329   -0.7025   -3.1314 C   0  0  0  0  0  0  0  0  0  0  0  0
    3.8524   -1.2890   -1.9351 C   0  0  0  0  0  0  0  0  0  0  0  0
    3.5267   -0.6296   -0.6986 O   0  0  0  0  0  0  0  0  0  0  0  0
    2.0754   -0.1816   -0.2244 P   0  0  0  0  0  0  0  0  0  0  0  0
    1.4822    1.5351   -0.9782 S   0  0  0  0  0  0  0  0  0  0  0  0
    2.2370   -0.2051    1.3527 O   0  0  0  0  0  0  0  0  0  0  0  0
    2.6280    0.9626    2.0965 C   0  0  0  0  0  0  0  0  0  0  0  0
    4.0819    1.3050    1.8561 C   0  0  0  0  0  0  0  0  0  0  0  0
    0.9659   -1.9666   -0.5081 S   0  0  0  0  0  0  0  0  0  0  0  0
   -0.2479   -1.9682    0.8474 C   0  0  0  0  0  0  0  0  0  0  0  0
   -1.9493   -1.6764    0.3065 S   0  0  0  0  0  0  0  0  0  0  0  0
   -1.9774    0.4463    0.4248 P   0  0  0  0  0  0  0  0  0  0  0  0
   -0.8647    1.1975    1.8468 S   0  0  0  0  0  0  0  0  0  0  0  0
   -3.5318    0.7517    0.5509 O   0  0  0  0  0  0  0  0  0  0  0  0
   -4.2631    0.4428    1.7555 C   0  0  0  0  0  0  0  0  0  0  0  0
   -5.5718    1.2047    1.7122 C   0  0  0  0  0  0  0  0  0  0  0  0
   -1.6531    1.0261   -0.9966 O   0  0  0  0  0  0  0  0  0  0  0  0
   -2.3148    0.5851   -2.2131 C   0  0  0  0  0  0  0  0  0  0  0  0
   -1.3454   -0.2061   -3.0674 C   0  0  0  0  0  0  0  0  0  0  0  0
    3.4679   -1.2016   -4.0349 H   0  0  0  0  0  0  0  0  0  0  0  0
    2.0578   -0.8468   -3.0236 H   0  0  0  0  0  0  0  0  0  0  0  0
    3.3324    0.3638   -3.2109 H   0  0  0  0  0  0  0  0  0  0  0  0
    4.9336   -1.1636   -2.0181 H   0  0  0  0  0  0  0  0  0  0  0  0
    3.6089   -2.3491   -1.8216 H   0  0  0  0  0  0  0  0  0  0  0  0
    1.9750    1.7950    1.8123 H   0  0  0  0  0  0  0  0  0  0  0  0
    2.4317    0.6926    3.1351 H   0  0  0  0  0  0  0  0  0  0  0  0
    4.2241    1.5752    0.8102 H   0  0  0  0  0  0  0  0  0  0  0  0
    4.3620    2.1457    2.4829 H   0  0  0  0  0  0  0  0  0  0  0  0
    4.7111    0.4497    2.0872 H   0  0  0  0  0  0  0  0  0  0  0  0
    0.0276   -1.2112    1.5836 H   0  0  0  0  0  0  0  0  0  0  0  0
   -0.2291   -2.9669    1.2751 H   0  0  0  0  0  0  0  0  0  0  0  0
   -4.4283   -0.6374    1.7844 H   0  0  0  0  0  0  0  0  0  0  0  0
   -3.6544    0.7370    2.6169 H   0  0  0  0  0  0  0  0  0  0  0  0
   -5.3800    2.2732    1.6686 H   0  0  0  0  0  0  0  0  0  0  0  0
   -6.1422    0.9136    0.8351 H   0  0  0  0  0  0  0  0  0  0  0  0
   -6.1441    0.9791    2.6059 H   0  0  0  0  0  0  0  0  0  0  0  0
   -3.1952   -0.0051   -1.9485 H   0  0  0  0  0  0  0  0  0  0  0  0
   -2.6209    1.5068   -2.7093 H   0  0  0  0  0  0  0  0  0  0  0  0
   -1.8024   -0.4104   -4.0301 H   0  0  0  0  0  0  0  0  0  0  0  0
   -0.4366    0.3730   -3.2162 H   0  0  0  0  0  0  0  0  0  0  0  0
   -1.0872   -1.1490   -2.5891 H   0  0  0  0  0  0  0  0  0  0  0  0
  1  2  1  0  0  0  0
  2  3  1  0  0  0  0
  3  4  2  0  0  0  0
  4  5  2  0  0  0  0
  4  6  2  0  0  0  0
  6  7  1  0  0  0  0
  7  8  1  0  0  0  0
  4  9  1  0  0  0  0
  9 10  1  0  0  0  0
 10 11  1  0  0  0  0
 11 12  1  0  0  0  0
 12 13  2  0  0  0  0
 12 14  2  0  0  0  0
 14 15  1  0  0  0  0
 15 16  1  0  0  0  0
 12 17  2  0  0  0  0
 17 18  1  0  0  0  0
 18 19  1  0  0  0  0
  1 20  1  0  0  0  0
  1 21  1  0  0  0  0
  1 22  1  0  0  0  0
  2 23  1  0  0  0  0
  2 24  1  0  0  0  0
  7 25  1  0  0  0  0
  7 26  1  0  0  0  0
  8 27  1  0  0  0  0
  8 28  1  0  0  0  0
  8 29  1  0  0  0  0
 10 30  1  0  0  0  0
 10 31  1  0  0  0  0
 15 32  1  0  0  0  0
 15 33  1  0  0  0  0
 16 34  1  0  0  0  0
 16 35  1  0  0  0  0
 16 36  1  0  0  0  0
 18 37  1  0  0  0  0
 18 38  1  0  0  0  0
 19 39  1  0  0  0  0
 19 40  1  0  0  0  0
 19 41  1  0  0  0  0
M  END
