 xtb: 6.7.1 (edcfbbe)
          04092505213D

 41 40  0     0  0            999 V2000
    3.4150    2.1487   -1.4833 C   0  0  0  0  0  0  0  0  0  0  0  0
    4.0188    1.6012   -0.2065 C   0  0  0  0  0  0  0  0  0  0  0  0
    3.6190    0.2409    0.0203 O   0  0  0  0  0  0  0  0  0  0  0  0
    2.1313   -0.1293    0.4481 P   0  0  0  0  0  0  0  0  0  0  0  0
    1.3625    1.1523    1.7250 S   0  0  0  0  0  0  0  0  0  0  0  0
    2.2778   -1.6436    0.8850 O   0  0  0  0  0  0  0  0  0  0  0  0
    3.3355   -2.1418    1.7367 C   0  0  0  0  0  0  0  0  0  0  0  0
    3.2874   -1.5410    3.1255 C   0  0  0  0  0  0  0  0  0  0  0  0
    1.1135   -0.4201   -1.4042 S   0  0  0  0  0  0  0  0  0  0  0  0
    0.0266   -1.7988   -0.9460 C   0  0  0  0  0  0  0  0  0  0  0  0
   -1.0096   -1.4547    0.4992 S   0  0  0  0  0  0  0  0  0  0  0  0
   -2.1533    0.0782   -0.4033 P   0  0  0  0  0  0  0  0  0  0  0  0
   -2.5755   -0.1527   -2.3074 S   0  0  0  0  0  0  0  0  0  0  0  0
   -1.2937    1.3659   -0.0776 O   0  0  0  0  0  0  0  0  0  0  0  0
   -1.2861    2.5382   -0.9108 C   0  0  0  0  0  0  0  0  0  0  0  0
   -2.5853    3.3045   -0.7841 C   0  0  0  0  0  0  0  0  0  0  0  0
   -3.3678    0.2772    0.5985 O   0  0  0  0  0  0  0  0  0  0  0  0
   -4.2267   -0.7639    1.1001 C   0  0  0  0  0  0  0  0  0  0  0  0
   -4.7951   -1.6423    0.0047 C   0  0  0  0  0  0  0  0  0  0  0  0
    2.3281    2.1701   -1.3943 H   0  0  0  0  0  0  0  0  0  0  0  0
    3.7759    3.1576   -1.6547 H   0  0  0  0  0  0  0  0  0  0  0  0
    3.6783    1.5189   -2.3290 H   0  0  0  0  0  0  0  0  0  0  0  0
    3.7086    2.2015    0.6558 H   0  0  0  0  0  0  0  0  0  0  0  0
    5.1071    1.5556   -0.2586 H   0  0  0  0  0  0  0  0  0  0  0  0
    3.1523   -3.2173    1.7611 H   0  0  0  0  0  0  0  0  0  0  0  0
    4.2917   -1.9353    1.2518 H   0  0  0  0  0  0  0  0  0  0  0  0
    4.0448   -2.0087    3.7467 H   0  0  0  0  0  0  0  0  0  0  0  0
    3.4756   -0.4693    3.0795 H   0  0  0  0  0  0  0  0  0  0  0  0
    2.3077   -1.6979    3.5708 H   0  0  0  0  0  0  0  0  0  0  0  0
    0.6205   -2.6764   -0.7074 H   0  0  0  0  0  0  0  0  0  0  0  0
   -0.6097   -1.9685   -1.8160 H   0  0  0  0  0  0  0  0  0  0  0  0
   -0.4346    3.1142   -0.5439 H   0  0  0  0  0  0  0  0  0  0  0  0
   -1.1114    2.2303   -1.9477 H   0  0  0  0  0  0  0  0  0  0  0  0
   -2.5321    4.2098   -1.3802 H   0  0  0  0  0  0  0  0  0  0  0  0
   -3.4083    2.6866   -1.1426 H   0  0  0  0  0  0  0  0  0  0  0  0
   -2.7669    3.5611    0.2562 H   0  0  0  0  0  0  0  0  0  0  0  0
   -3.6533   -1.3593    1.8165 H   0  0  0  0  0  0  0  0  0  0  0  0
   -5.0134   -0.2160    1.6221 H   0  0  0  0  0  0  0  0  0  0  0  0
   -3.9957   -2.1964   -0.4857 H   0  0  0  0  0  0  0  0  0  0  0  0
   -5.4993   -2.3455    0.4375 H   0  0  0  0  0  0  0  0  0  0  0  0
   -5.3032   -1.0370   -0.7424 H   0  0  0  0  0  0  0  0  0  0  0  0
  1  2  1  0  0  0  0
  2  3  1  0  0  0  0
  3  4  2  0  0  0  0
  4  5  2  0  0  0  0
  4  6  2  0  0  0  0
  6  7  1  0  0  0  0
  7  8  1  0  0  0  0
  4  9  1  0  0  0  0
  9 10  1  0  0  0  0
 10 11  1  0  0  0  0
 11 12  1  0  0  0  0
 12 13  2  0  0  0  0
 12 14  2  0  0  0  0
 14 15  1  0  0  0  0
 15 16  1  0  0  0  0
 12 17  2  0  0  0  0
 17 18  1  0  0  0  0
 18 19  1  0  0  0  0
  1 20  1  0  0  0  0
  1 21  1  0  0  0  0
  1 22  1  0  0  0  0
  2 23  1  0  0  0  0
  2 24  1  0  0  0  0
  7 25  1  0  0  0  0
  7 26  1  0  0  0  0
  8 27  1  0  0  0  0
  8 28  1  0  0  0  0
  8 29  1  0  0  0  0
 10 30  1  0  0  0  0
 10 31  1  0  0  0  0
 15 32  1  0  0  0  0
 15 33  1  0  0  0  0
 16 34  1  0  0  0  0
 16 35  1  0  0  0  0
 16 36  1  0  0  0  0
 18 37  1  0  0  0  0
 18 38  1  0  0  0  0
 19 39  1  0  0  0  0
 19 40  1  0  0  0  0
 19 41  1  0  0  0  0
M  END
