 xtb: 6.7.1 (edcfbbe)
          04092505213D

 41 40  0     0  0            999 V2000
    5.1828   -0.8249   -2.3693 C   0  0  0  0  0  0  0  0  0  0  0  0
    3.7423   -1.1319   -2.0116 C   0  0  0  0  0  0  0  0  0  0  0  0
    3.5032   -0.6562   -0.6720 O   0  0  0  0  0  0  0  0  0  0  0  0
    2.0556   -0.2641   -0.1518 P   0  0  0  0  0  0  0  0  0  0  0  0
    1.0336    0.8206   -1.4313 S   0  0  0  0  0  0  0  0  0  0  0  0
    2.3572    0.3725    1.2621 O   0  0  0  0  0  0  0  0  0  0  0  0
    2.6165    1.7780    1.4498 C   0  0  0  0  0  0  0  0  0  0  0  0
    3.8701    2.2227    0.7287 C   0  0  0  0  0  0  0  0  0  0  0  0
    1.3104   -2.1441    0.4424 S   0  0  0  0  0  0  0  0  0  0  0  0
   -0.3225   -1.6925    1.0898 C   0  0  0  0  0  0  0  0  0  0  0  0
   -1.5344   -1.3231   -0.2177 S   0  0  0  0  0  0  0  0  0  0  0  0
   -2.2374    0.5351    0.5521 P   0  0  0  0  0  0  0  0  0  0  0  0
   -0.9417    1.6267    1.5303 S   0  0  0  0  0  0  0  0  0  0  0  0
   -3.4341    0.1733    1.5101 O   0  0  0  0  0  0  0  0  0  0  0  0
   -4.5741   -0.6290    1.1021 C   0  0  0  0  0  0  0  0  0  0  0  0
   -4.5235   -1.9855    1.7762 C   0  0  0  0  0  0  0  0  0  0  0  0
   -3.0040    1.2202   -0.6544 O   0  0  0  0  0  0  0  0  0  0  0  0
   -2.3886    1.8179   -1.8120 C   0  0  0  0  0  0  0  0  0  0  0  0
   -2.3672    0.8476   -2.9758 C   0  0  0  0  0  0  0  0  0  0  0  0
    5.8494   -1.2915   -1.6500 H   0  0  0  0  0  0  0  0  0  0  0  0
    5.3928   -1.2134   -3.3603 H   0  0  0  0  0  0  0  0  0  0  0  0
    5.3522    0.2483   -2.3621 H   0  0  0  0  0  0  0  0  0  0  0  0
    3.5481   -2.2073   -2.0261 H   0  0  0  0  0  0  0  0  0  0  0  0
    3.0445   -0.6306   -2.6912 H   0  0  0  0  0  0  0  0  0  0  0  0
    1.7414    2.3401    1.1078 H   0  0  0  0  0  0  0  0  0  0  0  0
    2.7066    1.8795    2.5321 H   0  0  0  0  0  0  0  0  0  0  0  0
    4.0795    3.2579    0.9793 H   0  0  0  0  0  0  0  0  0  0  0  0
    4.7110    1.5987    1.0202 H   0  0  0  0  0  0  0  0  0  0  0  0
    3.7247    2.1416   -0.3480 H   0  0  0  0  0  0  0  0  0  0  0  0
   -0.2276   -0.8150    1.7342 H   0  0  0  0  0  0  0  0  0  0  0  0
   -0.6619   -2.5618    1.6465 H   0  0  0  0  0  0  0  0  0  0  0  0
   -5.4455   -0.0565    1.4230 H   0  0  0  0  0  0  0  0  0  0  0  0
   -4.5760   -0.7229    0.0146 H   0  0  0  0  0  0  0  0  0  0  0  0
   -4.4210   -1.8622    2.8508 H   0  0  0  0  0  0  0  0  0  0  0  0
   -5.4439   -2.5198    1.5634 H   0  0  0  0  0  0  0  0  0  0  0  0
   -3.6833   -2.5659    1.4033 H   0  0  0  0  0  0  0  0  0  0  0  0
   -3.0115    2.6872   -2.0306 H   0  0  0  0  0  0  0  0  0  0  0  0
   -1.3775    2.1489   -1.5586 H   0  0  0  0  0  0  0  0  0  0  0  0
   -3.3689    0.4778   -3.1750 H   0  0  0  0  0  0  0  0  0  0  0  0
   -1.9891    1.3623   -3.8528 H   0  0  0  0  0  0  0  0  0  0  0  0
   -1.7119    0.0074   -2.7580 H   0  0  0  0  0  0  0  0  0  0  0  0
  1  2  1  0  0  0  0
  2  3  1  0  0  0  0
  3  4  2  0  0  0  0
  4  5  2  0  0  0  0
  4  6  2  0  0  0  0
  6  7  1  0  0  0  0
  7  8  1  0  0  0  0
  4  9  1  0  0  0  0
  9 10  1  0  0  0  0
 10 11  1  0  0  0  0
 11 12  1  0  0  0  0
 12 13  2  0  0  0  0
 12 14  2  0  0  0  0
 14 15  1  0  0  0  0
 15 16  1  0  0  0  0
 12 17  2  0  0  0  0
 17 18  1  0  0  0  0
 18 19  1  0  0  0  0
  1 20  1  0  0  0  0
  1 21  1  0  0  0  0
  1 22  1  0  0  0  0
  2 23  1  0  0  0  0
  2 24  1  0  0  0  0
  7 25  1  0  0  0  0
  7 26  1  0  0  0  0
  8 27  1  0  0  0  0
  8 28  1  0  0  0  0
  8 29  1  0  0  0  0
 10 30  1  0  0  0  0
 10 31  1  0  0  0  0
 15 32  1  0  0  0  0
 15 33  1  0  0  0  0
 16 34  1  0  0  0  0
 16 35  1  0  0  0  0
 16 36  1  0  0  0  0
 18 37  1  0  0  0  0
 18 38  1  0  0  0  0
 19 39  1  0  0  0  0
 19 40  1  0  0  0  0
 19 41  1  0  0  0  0
M  END
