 xtb: 6.7.1 (edcfbbe)
          04092507313D

 38 37  0     0  0            999 V2000
    3.3933   -4.1110   -0.2898 C   0  0  0  0  0  0  0  0  0  0  0  0
    1.9925   -3.6163   -0.6130 C   0  0  0  0  0  0  0  0  0  0  0  0
    1.8171   -2.2472   -0.2021 O   0  0  0  0  0  0  0  0  0  0  0  0
    2.2169   -1.2921   -1.0177 C   0  0  0  0  0  0  0  0  0  0  0  0
    2.7204   -1.4724   -2.1029 O   0  0  0  0  0  0  0  0  0  0  0  0
    1.9101    0.0785   -0.4420 C   0  0  0  0  0  0  0  0  0  0  0  0
    0.7433    0.6836   -1.2270 C   0  0  0  0  0  0  0  0  0  0  0  0
    1.0464    0.8562   -2.2635 H   0  0  0  0  0  0  0  0  0  0  0  0
    0.2739    1.9837   -0.6013 C   0  0  0  0  0  0  0  0  0  0  0  0
   -0.8619    2.1317   -0.1960 O   0  0  0  0  0  0  0  0  0  0  0  0
    1.2177    2.8787   -0.5619 O   0  0  0  0  0  0  0  0  0  0  0  0
    0.9481    4.1319    0.1078 C   0  0  0  0  0  0  0  0  0  0  0  0
    1.2549    4.0129    1.5913 C   0  0  0  0  0  0  0  0  0  0  0  0
   -0.6873   -0.4340   -1.3370 S   0  0  0  0  0  0  0  0  0  0  0  0
   -1.5215   -0.2398    0.6301 P   0  0  0  0  0  0  0  0  0  0  0  0
   -0.5008    0.3924    2.1769 S   0  0  0  0  0  0  0  0  0  0  0  0
   -3.0075    0.3178    0.4504 O   0  0  0  0  0  0  0  0  0  0  0  0
   -3.4641    1.6586    0.6245 C   0  0  0  0  0  0  0  0  0  0  0  0
   -1.8651   -1.7688    0.9168 O   0  0  0  0  0  0  0  0  0  0  0  0
   -2.6875   -2.5713    0.0555 C   0  0  0  0  0  0  0  0  0  0  0  0
    4.1283   -3.5546   -0.8666 H   0  0  0  0  0  0  0  0  0  0  0  0
    3.6004   -3.9815    0.7691 H   0  0  0  0  0  0  0  0  0  0  0  0
    3.4682   -5.1631   -0.5438 H   0  0  0  0  0  0  0  0  0  0  0  0
    1.2365   -4.1651   -0.0511 H   0  0  0  0  0  0  0  0  0  0  0  0
    1.7951   -3.6822   -1.6868 H   0  0  0  0  0  0  0  0  0  0  0  0
    2.7790    0.7273   -0.5554 H   0  0  0  0  0  0  0  0  0  0  0  0
    1.6523   -0.0272    0.6132 H   0  0  0  0  0  0  0  0  0  0  0  0
    1.6076    4.8473   -0.3828 H   0  0  0  0  0  0  0  0  0  0  0  0
   -0.0993    4.3974   -0.0552 H   0  0  0  0  0  0  0  0  0  0  0  0
    0.6399    3.2366    2.0443 H   0  0  0  0  0  0  0  0  0  0  0  0
    2.2997    3.7573    1.7416 H   0  0  0  0  0  0  0  0  0  0  0  0
    1.0439    4.9588    2.0784 H   0  0  0  0  0  0  0  0  0  0  0  0
   -2.9013    2.1499    1.4179 H   0  0  0  0  0  0  0  0  0  0  0  0
   -4.5142    1.5738    0.8958 H   0  0  0  0  0  0  0  0  0  0  0  0
   -3.3453    2.2119   -0.3049 H   0  0  0  0  0  0  0  0  0  0  0  0
   -2.2715   -2.5848   -0.9525 H   0  0  0  0  0  0  0  0  0  0  0  0
   -3.7014   -2.1759    0.0345 H   0  0  0  0  0  0  0  0  0  0  0  0
   -2.6705   -3.5669    0.4917 H   0  0  0  0  0  0  0  0  0  0  0  0
  1  2  1  0  0  0  0
  2  3  1  0  0  0  0
  3  4  1  0  0  0  0
  4  5  2  0  0  0  0
  4  6  1  0  0  0  0
  6  7  1  0  0  0  0
  7  8  1  0  0  0  0
  7  9  1  0  0  0  0
  9 10  2  0  0  0  0
  9 11  4  0  0  0  0
 11 12  1  0  0  0  0
 12 13  1  0  0  0  0
  7 14  1  0  0  0  0
 14 15  1  0  0  0  0
 15 16  2  0  0  0  0
 15 17  2  0  0  0  0
 17 18  1  0  0  0  0
 15 19  1  0  0  0  0
 19 20  1  0  0  0  0
  1 21  1  0  0  0  0
  1 22  1  0  0  0  0
  1 23  1  0  0  0  0
  2 24  1  0  0  0  0
  2 25  1  0  0  0  0
  6 26  1  0  0  0  0
  6 27  1  0  0  0  0
 12 28  1  0  0  0  0
 12 29  1  0  0  0  0
 13 30  1  0  0  0  0
 13 31  1  0  0  0  0
 13 32  1  0  0  0  0
 18 33  1  0  0  0  0
 18 34  1  0  0  0  0
 18 35  1  0  0  0  0
 20 36  1  0  0  0  0
 20 37  1  0  0  0  0
 20 38  1  0  0  0  0
M  END
