 xtb: 6.7.1 (edcfbbe)
          04092505203D

 41 40  0     0  0            999 V2000
    3.4375    2.1315    0.0111 C   0  0  0  0  0  0  0  0  0  0  0  0
    3.0271    1.5875    1.3633 C   0  0  0  0  0  0  0  0  0  0  0  0
    1.8895    0.6906    1.2759 O   0  0  0  0  0  0  0  0  0  0  0  0
    1.8771   -0.7477    0.6416 P   0  0  0  0  0  0  0  0  0  0  0  0
    0.3486   -1.7978    1.2786 S   0  0  0  0  0  0  0  0  0  0  0  0
    3.3114   -1.3034    1.0314 O   0  0  0  0  0  0  0  0  0  0  0  0
    3.7003   -2.6572    0.7210 C   0  0  0  0  0  0  0  0  0  0  0  0
    4.9564   -2.9690    1.5088 C   0  0  0  0  0  0  0  0  0  0  0  0
    2.0110   -0.5991   -1.4874 S   0  0  0  0  0  0  0  0  0  0  0  0
    0.2566   -0.4108   -1.8355 C   0  0  0  0  0  0  0  0  0  0  0  0
   -0.4269    1.0567   -0.9982 S   0  0  0  0  0  0  0  0  0  0  0  0
   -2.4221    0.3615   -0.6982 P   0  0  0  0  0  0  0  0  0  0  0  0
   -2.7163   -1.5628   -0.8711 S   0  0  0  0  0  0  0  0  0  0  0  0
   -3.2764    1.1534   -1.7576 O   0  0  0  0  0  0  0  0  0  0  0  0
   -3.2607    2.5965   -1.8990 C   0  0  0  0  0  0  0  0  0  0  0  0
   -4.3914    3.2313   -1.1162 C   0  0  0  0  0  0  0  0  0  0  0  0
   -2.8823    1.0269    0.6708 O   0  0  0  0  0  0  0  0  0  0  0  0
   -2.4845    0.5405    1.9661 C   0  0  0  0  0  0  0  0  0  0  0  0
   -1.3881    1.4077    2.5523 C   0  0  0  0  0  0  0  0  0  0  0  0
    3.8787    1.3484   -0.6010 H   0  0  0  0  0  0  0  0  0  0  0  0
    2.5718    2.5370   -0.5079 H   0  0  0  0  0  0  0  0  0  0  0  0
    4.1688    2.9204    0.1567 H   0  0  0  0  0  0  0  0  0  0  0  0
    2.6615    2.3798    2.0183 H   0  0  0  0  0  0  0  0  0  0  0  0
    3.8487    1.0542    1.8432 H   0  0  0  0  0  0  0  0  0  0  0  0
    2.8777   -3.3273    0.9919 H   0  0  0  0  0  0  0  0  0  0  0  0
    3.8756   -2.7239   -0.3561 H   0  0  0  0  0  0  0  0  0  0  0  0
    5.2711   -3.9837    1.2884 H   0  0  0  0  0  0  0  0  0  0  0  0
    5.7486   -2.2791    1.2335 H   0  0  0  0  0  0  0  0  0  0  0  0
    4.7615   -2.8780    2.5738 H   0  0  0  0  0  0  0  0  0  0  0  0
   -0.2935   -1.2893   -1.4849 H   0  0  0  0  0  0  0  0  0  0  0  0
    0.1660   -0.2925   -2.9125 H   0  0  0  0  0  0  0  0  0  0  0  0
   -2.2876    2.9726   -1.5699 H   0  0  0  0  0  0  0  0  0  0  0  0
   -3.3781    2.7619   -2.9714 H   0  0  0  0  0  0  0  0  0  0  0  0
   -4.2657    3.0471   -0.0528 H   0  0  0  0  0  0  0  0  0  0  0  0
   -4.3914    4.3014   -1.2986 H   0  0  0  0  0  0  0  0  0  0  0  0
   -5.3429    2.8126   -1.4325 H   0  0  0  0  0  0  0  0  0  0  0  0
   -3.3916    0.5857    2.5720 H   0  0  0  0  0  0  0  0  0  0  0  0
   -2.1625   -0.5026    1.8803 H   0  0  0  0  0  0  0  0  0  0  0  0
   -1.1876    1.0801    3.5675 H   0  0  0  0  0  0  0  0  0  0  0  0
   -0.4736    1.3127    1.9706 H   0  0  0  0  0  0  0  0  0  0  0  0
   -1.6985    2.4485    2.5606 H   0  0  0  0  0  0  0  0  0  0  0  0
  1  2  1  0  0  0  0
  2  3  1  0  0  0  0
  3  4  2  0  0  0  0
  4  5  2  0  0  0  0
  4  6  2  0  0  0  0
  6  7  1  0  0  0  0
  7  8  1  0  0  0  0
  4  9  1  0  0  0  0
  9 10  1  0  0  0  0
 10 11  1  0  0  0  0
 11 12  1  0  0  0  0
 12 13  2  0  0  0  0
 12 14  2  0  0  0  0
 14 15  1  0  0  0  0
 15 16  1  0  0  0  0
 12 17  2  0  0  0  0
 17 18  1  0  0  0  0
 18 19  1  0  0  0  0
  1 20  1  0  0  0  0
  1 21  1  0  0  0  0
  1 22  1  0  0  0  0
  2 23  1  0  0  0  0
  2 24  1  0  0  0  0
  7 25  1  0  0  0  0
  7 26  1  0  0  0  0
  8 27  1  0  0  0  0
  8 28  1  0  0  0  0
  8 29  1  0  0  0  0
 10 30  1  0  0  0  0
 10 31  1  0  0  0  0
 15 32  1  0  0  0  0
 15 33  1  0  0  0  0
 16 34  1  0  0  0  0
 16 35  1  0  0  0  0
 16 36  1  0  0  0  0
 18 37  1  0  0  0  0
 18 38  1  0  0  0  0
 19 39  1  0  0  0  0
 19 40  1  0  0  0  0
 19 41  1  0  0  0  0
M  END
