 xtb: 6.7.1 (edcfbbe)
          04092505213D

 41 40  0     0  0            999 V2000
    4.5460    0.9516   -2.1131 C   0  0  0  0  0  0  0  0  0  0  0  0
    4.8420   -0.1443   -1.1100 C   0  0  0  0  0  0  0  0  0  0  0  0
    3.6593   -0.8802   -0.7493 O   0  0  0  0  0  0  0  0  0  0  0  0
    2.4740   -0.2250    0.0860 P   0  0  0  0  0  0  0  0  0  0  0  0
    3.0697    0.9874    1.5127 S   0  0  0  0  0  0  0  0  0  0  0  0
    1.6744   -1.5059    0.5613 O   0  0  0  0  0  0  0  0  0  0  0  0
    2.1861   -2.3386    1.6308 C   0  0  0  0  0  0  0  0  0  0  0  0
    1.0144   -2.9970    2.3275 C   0  0  0  0  0  0  0  0  0  0  0  0
    1.1358    0.5455   -1.3393 S   0  0  0  0  0  0  0  0  0  0  0  0
    0.2100    1.6100   -0.1928 C   0  0  0  0  0  0  0  0  0  0  0  0
   -0.8453    0.7007    0.9623 S   0  0  0  0  0  0  0  0  0  0  0  0
   -2.3943    0.1885   -0.4288 P   0  0  0  0  0  0  0  0  0  0  0  0
   -1.9808   -1.0686   -1.8664 S   0  0  0  0  0  0  0  0  0  0  0  0
   -2.8557    1.5896   -0.9907 O   0  0  0  0  0  0  0  0  0  0  0  0
   -3.4138    2.6461   -0.1664 C   0  0  0  0  0  0  0  0  0  0  0  0
   -4.9277    2.5990   -0.1873 C   0  0  0  0  0  0  0  0  0  0  0  0
   -3.5931   -0.2381    0.5241 O   0  0  0  0  0  0  0  0  0  0  0  0
   -3.7872   -1.5989    0.9478 C   0  0  0  0  0  0  0  0  0  0  0  0
   -2.6420   -2.0877    1.8089 C   0  0  0  0  0  0  0  0  0  0  0  0
    5.4779    1.4005   -2.4414 H   0  0  0  0  0  0  0  0  0  0  0  0
    4.0169    0.5454   -2.9717 H   0  0  0  0  0  0  0  0  0  0  0  0
    3.9263    1.7196   -1.6516 H   0  0  0  0  0  0  0  0  0  0  0  0
    5.2765    0.2766   -0.1975 H   0  0  0  0  0  0  0  0  0  0  0  0
    5.5065   -0.9037   -1.5241 H   0  0  0  0  0  0  0  0  0  0  0  0
    2.8548   -3.0758    1.1807 H   0  0  0  0  0  0  0  0  0  0  0  0
    2.7559   -1.7072    2.3217 H   0  0  0  0  0  0  0  0  0  0  0  0
    0.4362   -3.5757    1.6127 H   0  0  0  0  0  0  0  0  0  0  0  0
    1.3888   -3.6554    3.1045 H   0  0  0  0  0  0  0  0  0  0  0  0
    0.3736   -2.2415    2.7743 H   0  0  0  0  0  0  0  0  0  0  0  0
   -0.3941    2.2702   -0.8108 H   0  0  0  0  0  0  0  0  0  0  0  0
    0.9161    2.1724    0.4194 H   0  0  0  0  0  0  0  0  0  0  0  0
   -3.0283    2.5456    0.8515 H   0  0  0  0  0  0  0  0  0  0  0  0
   -3.0424    3.5687   -0.6169 H   0  0  0  0  0  0  0  0  0  0  0  0
   -5.2867    2.6438   -1.2119 H   0  0  0  0  0  0  0  0  0  0  0  0
   -5.2835    1.6798    0.2692 H   0  0  0  0  0  0  0  0  0  0  0  0
   -5.3158    3.4484    0.3663 H   0  0  0  0  0  0  0  0  0  0  0  0
   -4.7277   -1.5709    1.4998 H   0  0  0  0  0  0  0  0  0  0  0  0
   -3.8931   -2.2255    0.0570 H   0  0  0  0  0  0  0  0  0  0  0  0
   -2.4812   -1.4114    2.6452 H   0  0  0  0  0  0  0  0  0  0  0  0
   -2.8655   -3.0813    2.1837 H   0  0  0  0  0  0  0  0  0  0  0  0
   -1.7322   -2.1309    1.2110 H   0  0  0  0  0  0  0  0  0  0  0  0
  1  2  1  0  0  0  0
  2  3  1  0  0  0  0
  3  4  2  0  0  0  0
  4  5  2  0  0  0  0
  4  6  2  0  0  0  0
  6  7  1  0  0  0  0
  7  8  1  0  0  0  0
  4  9  1  0  0  0  0
  9 10  1  0  0  0  0
 10 11  1  0  0  0  0
 11 12  1  0  0  0  0
 12 13  2  0  0  0  0
 12 14  2  0  0  0  0
 14 15  1  0  0  0  0
 15 16  1  0  0  0  0
 12 17  2  0  0  0  0
 17 18  1  0  0  0  0
 18 19  1  0  0  0  0
  1 20  1  0  0  0  0
  1 21  1  0  0  0  0
  1 22  1  0  0  0  0
  2 23  1  0  0  0  0
  2 24  1  0  0  0  0
  7 25  1  0  0  0  0
  7 26  1  0  0  0  0
  8 27  1  0  0  0  0
  8 28  1  0  0  0  0
  8 29  1  0  0  0  0
 10 30  1  0  0  0  0
 10 31  1  0  0  0  0
 15 32  1  0  0  0  0
 15 33  1  0  0  0  0
 16 34  1  0  0  0  0
 16 35  1  0  0  0  0
 16 36  1  0  0  0  0
 18 37  1  0  0  0  0
 18 38  1  0  0  0  0
 19 39  1  0  0  0  0
 19 40  1  0  0  0  0
 19 41  1  0  0  0  0
M  END
