 xtb: 6.7.1 (edcfbbe)
          04092505203D

 41 40  0     0  0            999 V2000
    5.3716   -2.0414   -1.8153 C   0  0  0  0  0  0  0  0  0  0  0  0
    4.2819   -0.9879   -1.8183 C   0  0  0  0  0  0  0  0  0  0  0  0
    3.2711   -1.3844   -0.8697 O   0  0  0  0  0  0  0  0  0  0  0  0
    2.3554   -0.3279   -0.1143 P   0  0  0  0  0  0  0  0  0  0  0  0
    3.3300    1.2243    0.5926 S   0  0  0  0  0  0  0  0  0  0  0  0
    1.6167   -1.2520    0.9333 O   0  0  0  0  0  0  0  0  0  0  0  0
    2.1433   -1.4682    2.2681 C   0  0  0  0  0  0  0  0  0  0  0  0
    1.4757   -0.5393    3.2616 C   0  0  0  0  0  0  0  0  0  0  0  0
    0.8113    0.0853   -1.4906 S   0  0  0  0  0  0  0  0  0  0  0  0
    0.1402    1.5169   -0.5958 C   0  0  0  0  0  0  0  0  0  0  0  0
   -0.8934    1.0412    0.8014 S   0  0  0  0  0  0  0  0  0  0  0  0
   -2.5344    0.3258   -0.3664 P   0  0  0  0  0  0  0  0  0  0  0  0
   -2.8721    1.3640   -1.9929 S   0  0  0  0  0  0  0  0  0  0  0  0
   -3.7447    0.2225    0.6564 O   0  0  0  0  0  0  0  0  0  0  0  0
   -4.6289    1.3285    0.9190 C   0  0  0  0  0  0  0  0  0  0  0  0
   -3.9275    2.4758    1.6159 C   0  0  0  0  0  0  0  0  0  0  0  0
   -2.2392   -1.1880   -0.7031 O   0  0  0  0  0  0  0  0  0  0  0  0
   -2.4904   -2.3209    0.1631 C   0  0  0  0  0  0  0  0  0  0  0  0
   -1.6976   -2.2542    1.4507 C   0  0  0  0  0  0  0  0  0  0  0  0
    6.1232   -1.7768   -2.5518 H   0  0  0  0  0  0  0  0  0  0  0  0
    5.8357   -2.0978   -0.8345 H   0  0  0  0  0  0  0  0  0  0  0  0
    4.9498   -3.0113   -2.0624 H   0  0  0  0  0  0  0  0  0  0  0  0
    3.8073   -0.9056   -2.7993 H   0  0  0  0  0  0  0  0  0  0  0  0
    4.6739   -0.0080   -1.5248 H   0  0  0  0  0  0  0  0  0  0  0  0
    1.9239   -2.5148    2.4833 H   0  0  0  0  0  0  0  0  0  0  0  0
    3.2252   -1.3136    2.2552 H   0  0  0  0  0  0  0  0  0  0  0  0
    0.3973   -0.6611    3.2287 H   0  0  0  0  0  0  0  0  0  0  0  0
    1.8364   -0.7678    4.2592 H   0  0  0  0  0  0  0  0  0  0  0  0
    1.7140    0.4957    3.0260 H   0  0  0  0  0  0  0  0  0  0  0  0
   -0.4585    2.0801   -1.3126 H   0  0  0  0  0  0  0  0  0  0  0  0
    0.9640    2.1155   -0.2052 H   0  0  0  0  0  0  0  0  0  0  0  0
   -5.0562    1.6606   -0.0320 H   0  0  0  0  0  0  0  0  0  0  0  0
   -5.4080    0.8919    1.5455 H   0  0  0  0  0  0  0  0  0  0  0  0
   -3.2061    2.9359    0.9425 H   0  0  0  0  0  0  0  0  0  0  0  0
   -4.6622    3.2209    1.9036 H   0  0  0  0  0  0  0  0  0  0  0  0
   -3.4050    2.1225    2.5010 H   0  0  0  0  0  0  0  0  0  0  0  0
   -3.5627   -2.3640    0.3641 H   0  0  0  0  0  0  0  0  0  0  0  0
   -2.1911   -3.1719   -0.4509 H   0  0  0  0  0  0  0  0  0  0  0  0
   -2.0276   -1.4074    2.0498 H   0  0  0  0  0  0  0  0  0  0  0  0
   -1.8544   -3.1701    2.0120 H   0  0  0  0  0  0  0  0  0  0  0  0
   -0.6380   -2.1436    1.2325 H   0  0  0  0  0  0  0  0  0  0  0  0
  1  2  1  0  0  0  0
  2  3  1  0  0  0  0
  3  4  2  0  0  0  0
  4  5  2  0  0  0  0
  4  6  2  0  0  0  0
  6  7  1  0  0  0  0
  7  8  1  0  0  0  0
  4  9  1  0  0  0  0
  9 10  1  0  0  0  0
 10 11  1  0  0  0  0
 11 12  1  0  0  0  0
 12 13  2  0  0  0  0
 12 14  2  0  0  0  0
 14 15  1  0  0  0  0
 15 16  1  0  0  0  0
 12 17  2  0  0  0  0
 17 18  1  0  0  0  0
 18 19  1  0  0  0  0
  1 20  1  0  0  0  0
  1 21  1  0  0  0  0
  1 22  1  0  0  0  0
  2 23  1  0  0  0  0
  2 24  1  0  0  0  0
  7 25  1  0  0  0  0
  7 26  1  0  0  0  0
  8 27  1  0  0  0  0
  8 28  1  0  0  0  0
  8 29  1  0  0  0  0
 10 30  1  0  0  0  0
 10 31  1  0  0  0  0
 15 32  1  0  0  0  0
 15 33  1  0  0  0  0
 16 34  1  0  0  0  0
 16 35  1  0  0  0  0
 16 36  1  0  0  0  0
 18 37  1  0  0  0  0
 18 38  1  0  0  0  0
 19 39  1  0  0  0  0
 19 40  1  0  0  0  0
 19 41  1  0  0  0  0
M  END
