 xtb: 6.7.1 (edcfbbe)
          04092505203D

 41 40  0     0  0            999 V2000
    4.4993   -0.5127   -2.3561 C   0  0  0  0  0  0  0  0  0  0  0  0
    3.1299   -1.1580   -2.3469 C   0  0  0  0  0  0  0  0  0  0  0  0
    2.6211   -1.3061   -1.0041 O   0  0  0  0  0  0  0  0  0  0  0  0
    2.1407   -0.0676   -0.1437 P   0  0  0  0  0  0  0  0  0  0  0  0
    1.3854    1.4233   -1.1776 S   0  0  0  0  0  0  0  0  0  0  0  0
    3.4484    0.3392    0.6662 O   0  0  0  0  0  0  0  0  0  0  0  0
    3.5697    1.5943    1.3521 C   0  0  0  0  0  0  0  0  0  0  0  0
    2.6744    1.6578    2.5731 C   0  0  0  0  0  0  0  0  0  0  0  0
    1.0474   -1.1417    1.3147 S   0  0  0  0  0  0  0  0  0  0  0  0
   -0.0657   -2.1013    0.2410 C   0  0  0  0  0  0  0  0  0  0  0  0
   -1.0101   -1.1138   -0.9511 S   0  0  0  0  0  0  0  0  0  0  0  0
   -2.1012    0.1280    0.4115 P   0  0  0  0  0  0  0  0  0  0  0  0
   -1.1946    1.5110    1.4530 S   0  0  0  0  0  0  0  0  0  0  0  0
   -2.8140   -0.9131    1.3561 O   0  0  0  0  0  0  0  0  0  0  0  0
   -3.7233   -1.9456    0.8949 C   0  0  0  0  0  0  0  0  0  0  0  0
   -5.1605   -1.4759    0.9872 C   0  0  0  0  0  0  0  0  0  0  0  0
   -3.2792    0.6661   -0.5105 O   0  0  0  0  0  0  0  0  0  0  0  0
   -3.1749    1.8703   -1.2880 C   0  0  0  0  0  0  0  0  0  0  0  0
   -2.2933    1.6833   -2.5058 C   0  0  0  0  0  0  0  0  0  0  0  0
    5.1760   -1.0577   -1.7033 H   0  0  0  0  0  0  0  0  0  0  0  0
    4.8913   -0.5130   -3.3683 H   0  0  0  0  0  0  0  0  0  0  0  0
    4.4251    0.5158   -2.0052 H   0  0  0  0  0  0  0  0  0  0  0  0
    3.1598   -2.1789   -2.7295 H   0  0  0  0  0  0  0  0  0  0  0  0
    2.4160   -0.5613   -2.9237 H   0  0  0  0  0  0  0  0  0  0  0  0
    4.6252    1.6468    1.6225 H   0  0  0  0  0  0  0  0  0  0  0  0
    3.3213    2.4002    0.6530 H   0  0  0  0  0  0  0  0  0  0  0  0
    2.8709    2.5739    3.1206 H   0  0  0  0  0  0  0  0  0  0  0  0
    1.6253    1.6524    2.2726 H   0  0  0  0  0  0  0  0  0  0  0  0
    2.8549    0.8027    3.2200 H   0  0  0  0  0  0  0  0  0  0  0  0
   -0.7413   -2.6211    0.9173 H   0  0  0  0  0  0  0  0  0  0  0  0
    0.5171   -2.8048   -0.3493 H   0  0  0  0  0  0  0  0  0  0  0  0
   -3.4631   -2.2189   -0.1312 H   0  0  0  0  0  0  0  0  0  0  0  0
   -3.5407   -2.7868    1.5664 H   0  0  0  0  0  0  0  0  0  0  0  0
   -5.3813   -1.1522    2.0007 H   0  0  0  0  0  0  0  0  0  0  0  0
   -5.3304   -0.6441    0.3092 H   0  0  0  0  0  0  0  0  0  0  0  0
   -5.8193   -2.2966    0.7208 H   0  0  0  0  0  0  0  0  0  0  0  0
   -4.2059    2.0904   -1.5693 H   0  0  0  0  0  0  0  0  0  0  0  0
   -2.7855    2.6676   -0.6466 H   0  0  0  0  0  0  0  0  0  0  0  0
   -2.6078    0.8089   -3.0700 H   0  0  0  0  0  0  0  0  0  0  0  0
   -2.3605    2.5638   -3.1364 H   0  0  0  0  0  0  0  0  0  0  0  0
   -1.2539    1.5543   -2.2052 H   0  0  0  0  0  0  0  0  0  0  0  0
  1  2  1  0  0  0  0
  2  3  1  0  0  0  0
  3  4  2  0  0  0  0
  4  5  2  0  0  0  0
  4  6  2  0  0  0  0
  6  7  1  0  0  0  0
  7  8  1  0  0  0  0
  4  9  1  0  0  0  0
  9 10  1  0  0  0  0
 10 11  1  0  0  0  0
 11 12  1  0  0  0  0
 12 13  2  0  0  0  0
 12 14  2  0  0  0  0
 14 15  1  0  0  0  0
 15 16  1  0  0  0  0
 12 17  2  0  0  0  0
 17 18  1  0  0  0  0
 18 19  1  0  0  0  0
  1 20  1  0  0  0  0
  1 21  1  0  0  0  0
  1 22  1  0  0  0  0
  2 23  1  0  0  0  0
  2 24  1  0  0  0  0
  7 25  1  0  0  0  0
  7 26  1  0  0  0  0
  8 27  1  0  0  0  0
  8 28  1  0  0  0  0
  8 29  1  0  0  0  0
 10 30  1  0  0  0  0
 10 31  1  0  0  0  0
 15 32  1  0  0  0  0
 15 33  1  0  0  0  0
 16 34  1  0  0  0  0
 16 35  1  0  0  0  0
 16 36  1  0  0  0  0
 18 37  1  0  0  0  0
 18 38  1  0  0  0  0
 19 39  1  0  0  0  0
 19 40  1  0  0  0  0
 19 41  1  0  0  0  0
M  END
