 xtb: 6.7.1 (edcfbbe)
          04092505213D

 41 40  0     0  0            999 V2000
    2.5250   -2.0262   -2.0703 C   0  0  0  0  0  0  0  0  0  0  0  0
    2.1337   -0.5658   -2.1264 C   0  0  0  0  0  0  0  0  0  0  0  0
    2.6336    0.2059   -1.0102 O   0  0  0  0  0  0  0  0  0  0  0  0
    2.5659   -0.1447    0.5257 P   0  0  0  0  0  0  0  0  0  0  0  0
    2.9384    1.4418    1.6106 S   0  0  0  0  0  0  0  0  0  0  0  0
    3.6206   -1.3233    0.6695 O   0  0  0  0  0  0  0  0  0  0  0  0
    4.2190   -1.6772    1.9285 C   0  0  0  0  0  0  0  0  0  0  0  0
    3.2149   -2.2652    2.8987 C   0  0  0  0  0  0  0  0  0  0  0  0
    0.6764   -1.0673    0.8750 S   0  0  0  0  0  0  0  0  0  0  0  0
   -0.2485    0.4610    1.1294 C   0  0  0  0  0  0  0  0  0  0  0  0
   -0.6092    1.3285   -0.4336 S   0  0  0  0  0  0  0  0  0  0  0  0
   -2.5909    0.5749   -0.6916 P   0  0  0  0  0  0  0  0  0  0  0  0
   -3.4621    1.0860   -2.3680 S   0  0  0  0  0  0  0  0  0  0  0  0
   -3.3508    0.9333    0.6535 O   0  0  0  0  0  0  0  0  0  0  0  0
   -4.1490    2.1248    0.7622 C   0  0  0  0  0  0  0  0  0  0  0  0
   -3.2954    3.3773    0.7954 C   0  0  0  0  0  0  0  0  0  0  0  0
   -2.4601   -0.9766   -0.4044 O   0  0  0  0  0  0  0  0  0  0  0  0
   -1.9622   -1.8740   -1.4194 C   0  0  0  0  0  0  0  0  0  0  0  0
   -1.8535   -3.2504   -0.7977 C   0  0  0  0  0  0  0  0  0  0  0  0
    3.6049   -2.1212   -1.9956 H   0  0  0  0  0  0  0  0  0  0  0  0
    2.0688   -2.5103   -1.2089 H   0  0  0  0  0  0  0  0  0  0  0  0
    2.1828   -2.5176   -2.9762 H   0  0  0  0  0  0  0  0  0  0  0  0
    1.0465   -0.4438   -2.1550 H   0  0  0  0  0  0  0  0  0  0  0  0
    2.5698   -0.0634   -2.9914 H   0  0  0  0  0  0  0  0  0  0  0  0
    4.9871   -2.4021    1.6554 H   0  0  0  0  0  0  0  0  0  0  0  0
    4.6860   -0.7831    2.3534 H   0  0  0  0  0  0  0  0  0  0  0  0
    3.7391   -2.6363    3.7735 H   0  0  0  0  0  0  0  0  0  0  0  0
    2.5071   -1.4998    3.2127 H   0  0  0  0  0  0  0  0  0  0  0  0
    2.6690   -3.0810    2.4320 H   0  0  0  0  0  0  0  0  0  0  0  0
    0.3557    1.1389    1.7347 H   0  0  0  0  0  0  0  0  0  0  0  0
   -1.1827    0.2032    1.6226 H   0  0  0  0  0  0  0  0  0  0  0  0
   -4.8441    2.1576   -0.0827 H   0  0  0  0  0  0  0  0  0  0  0  0
   -4.7019    1.9878    1.6926 H   0  0  0  0  0  0  0  0  0  0  0  0
   -3.9316    4.2419    0.9548 H   0  0  0  0  0  0  0  0  0  0  0  0
   -2.5616    3.3202    1.5958 H   0  0  0  0  0  0  0  0  0  0  0  0
   -2.7729    3.4956   -0.1540 H   0  0  0  0  0  0  0  0  0  0  0  0
   -2.6586   -1.8580   -2.2631 H   0  0  0  0  0  0  0  0  0  0  0  0
   -0.9862   -1.5178   -1.7638 H   0  0  0  0  0  0  0  0  0  0  0  0
   -1.1533   -3.2241    0.0330 H   0  0  0  0  0  0  0  0  0  0  0  0
   -2.8251   -3.5678   -0.4316 H   0  0  0  0  0  0  0  0  0  0  0  0
   -1.5030   -3.9526   -1.5464 H   0  0  0  0  0  0  0  0  0  0  0  0
  1  2  1  0  0  0  0
  2  3  1  0  0  0  0
  3  4  2  0  0  0  0
  4  5  2  0  0  0  0
  4  6  2  0  0  0  0
  6  7  1  0  0  0  0
  7  8  1  0  0  0  0
  4  9  1  0  0  0  0
  9 10  1  0  0  0  0
 10 11  1  0  0  0  0
 11 12  1  0  0  0  0
 12 13  2  0  0  0  0
 12 14  2  0  0  0  0
 14 15  1  0  0  0  0
 15 16  1  0  0  0  0
 12 17  2  0  0  0  0
 17 18  1  0  0  0  0
 18 19  1  0  0  0  0
  1 20  1  0  0  0  0
  1 21  1  0  0  0  0
  1 22  1  0  0  0  0
  2 23  1  0  0  0  0
  2 24  1  0  0  0  0
  7 25  1  0  0  0  0
  7 26  1  0  0  0  0
  8 27  1  0  0  0  0
  8 28  1  0  0  0  0
  8 29  1  0  0  0  0
 10 30  1  0  0  0  0
 10 31  1  0  0  0  0
 15 32  1  0  0  0  0
 15 33  1  0  0  0  0
 16 34  1  0  0  0  0
 16 35  1  0  0  0  0
 16 36  1  0  0  0  0
 18 37  1  0  0  0  0
 18 38  1  0  0  0  0
 19 39  1  0  0  0  0
 19 40  1  0  0  0  0
 19 41  1  0  0  0  0
M  END
