 xtb: 6.7.1 (edcfbbe)
          04092505213D

 41 40  0     0  0            999 V2000
    1.5953   -2.3604    1.3420 C   0  0  0  0  0  0  0  0  0  0  0  0
    3.0564   -2.0182    1.1347 C   0  0  0  0  0  0  0  0  0  0  0  0
    3.2697   -0.6002    1.0203 O   0  0  0  0  0  0  0  0  0  0  0  0
    2.8420    0.2298   -0.2685 P   0  0  0  0  0  0  0  0  0  0  0  0
    3.1100   -0.6914   -1.9722 S   0  0  0  0  0  0  0  0  0  0  0  0
    3.7337    1.5242   -0.1636 O   0  0  0  0  0  0  0  0  0  0  0  0
    3.6659    2.5175    0.8871 C   0  0  0  0  0  0  0  0  0  0  0  0
    4.4495    2.0976    2.1135 C   0  0  0  0  0  0  0  0  0  0  0  0
    0.8565    0.9514    0.1271 S   0  0  0  0  0  0  0  0  0  0  0  0
    0.0154    0.3436   -1.3542 C   0  0  0  0  0  0  0  0  0  0  0  0
   -1.0998   -1.0360   -1.0095 S   0  0  0  0  0  0  0  0  0  0  0  0
   -2.6798    0.1547   -0.2088 P   0  0  0  0  0  0  0  0  0  0  0  0
   -3.0454    1.8041   -1.1941 S   0  0  0  0  0  0  0  0  0  0  0  0
   -2.3372    0.4308    1.2978 O   0  0  0  0  0  0  0  0  0  0  0  0
   -2.0448   -0.6214    2.2573 C   0  0  0  0  0  0  0  0  0  0  0  0
   -1.1143   -0.0453    3.3039 C   0  0  0  0  0  0  0  0  0  0  0  0
   -3.8752   -0.8851   -0.1038 O   0  0  0  0  0  0  0  0  0  0  0  0
   -4.5571   -1.3712   -1.2791 C   0  0  0  0  0  0  0  0  0  0  0  0
   -5.8355   -2.0453   -0.8247 C   0  0  0  0  0  0  0  0  0  0  0  0
    1.1911   -1.7942    2.1768 H   0  0  0  0  0  0  0  0  0  0  0  0
    1.0250   -2.1321    0.4422 H   0  0  0  0  0  0  0  0  0  0  0  0
    1.5027   -3.4216    1.5490 H   0  0  0  0  0  0  0  0  0  0  0  0
    3.4428   -2.5013    0.2319 H   0  0  0  0  0  0  0  0  0  0  0  0
    3.6624   -2.3042    1.9957 H   0  0  0  0  0  0  0  0  0  0  0  0
    4.0952    3.4088    0.4260 H   0  0  0  0  0  0  0  0  0  0  0  0
    2.6151    2.6981    1.1309 H   0  0  0  0  0  0  0  0  0  0  0  0
    4.4565    2.9183    2.8241 H   0  0  0  0  0  0  0  0  0  0  0  0
    3.9948    1.2268    2.5766 H   0  0  0  0  0  0  0  0  0  0  0  0
    5.4719    1.8549    1.8366 H   0  0  0  0  0  0  0  0  0  0  0  0
    0.7627   -0.0130   -2.0673 H   0  0  0  0  0  0  0  0  0  0  0  0
   -0.5720    1.1649   -1.7670 H   0  0  0  0  0  0  0  0  0  0  0  0
   -2.9947   -0.9392    2.6899 H   0  0  0  0  0  0  0  0  0  0  0  0
   -1.5882   -1.4627    1.7275 H   0  0  0  0  0  0  0  0  0  0  0  0
   -1.5872    0.7990    3.7968 H   0  0  0  0  0  0  0  0  0  0  0  0
   -0.8869   -0.8105    4.0393 H   0  0  0  0  0  0  0  0  0  0  0  0
   -0.1957    0.3005    2.8363 H   0  0  0  0  0  0  0  0  0  0  0  0
   -4.7610   -0.5223   -1.9398 H   0  0  0  0  0  0  0  0  0  0  0  0
   -3.8941   -2.0729   -1.7923 H   0  0  0  0  0  0  0  0  0  0  0  0
   -5.6032   -2.8653   -0.1517 H   0  0  0  0  0  0  0  0  0  0  0  0
   -6.4693   -1.3314   -0.3061 H   0  0  0  0  0  0  0  0  0  0  0  0
   -6.3629   -2.4291   -1.6916 H   0  0  0  0  0  0  0  0  0  0  0  0
  1  2  1  0  0  0  0
  2  3  1  0  0  0  0
  3  4  2  0  0  0  0
  4  5  2  0  0  0  0
  4  6  2  0  0  0  0
  6  7  1  0  0  0  0
  7  8  1  0  0  0  0
  4  9  1  0  0  0  0
  9 10  1  0  0  0  0
 10 11  1  0  0  0  0
 11 12  1  0  0  0  0
 12 13  2  0  0  0  0
 12 14  2  0  0  0  0
 14 15  1  0  0  0  0
 15 16  1  0  0  0  0
 12 17  2  0  0  0  0
 17 18  1  0  0  0  0
 18 19  1  0  0  0  0
  1 20  1  0  0  0  0
  1 21  1  0  0  0  0
  1 22  1  0  0  0  0
  2 23  1  0  0  0  0
  2 24  1  0  0  0  0
  7 25  1  0  0  0  0
  7 26  1  0  0  0  0
  8 27  1  0  0  0  0
  8 28  1  0  0  0  0
  8 29  1  0  0  0  0
 10 30  1  0  0  0  0
 10 31  1  0  0  0  0
 15 32  1  0  0  0  0
 15 33  1  0  0  0  0
 16 34  1  0  0  0  0
 16 35  1  0  0  0  0
 16 36  1  0  0  0  0
 18 37  1  0  0  0  0
 18 38  1  0  0  0  0
 19 39  1  0  0  0  0
 19 40  1  0  0  0  0
 19 41  1  0  0  0  0
M  END
