 xtb: 6.7.1 (edcfbbe)
          04092505203D

 41 40  0     0  0            999 V2000
    3.0144    0.6647   -2.8194 C   0  0  0  0  0  0  0  0  0  0  0  0
    2.4857   -0.7302   -2.5539 C   0  0  0  0  0  0  0  0  0  0  0  0
    1.6274   -0.7753   -1.3955 O   0  0  0  0  0  0  0  0  0  0  0  0
    2.1183   -0.5907    0.1009 P   0  0  0  0  0  0  0  0  0  0  0  0
    2.7812    1.1457    0.7470 S   0  0  0  0  0  0  0  0  0  0  0  0
    3.2175   -1.7425    0.1748 O   0  0  0  0  0  0  0  0  0  0  0  0
    4.1796   -1.8234    1.2386 C   0  0  0  0  0  0  0  0  0  0  0  0
    3.5370   -2.2054    2.5564 C   0  0  0  0  0  0  0  0  0  0  0  0
    0.4327   -1.3711    1.0863 S   0  0  0  0  0  0  0  0  0  0  0  0
   -0.2249    0.1332    1.8961 C   0  0  0  0  0  0  0  0  0  0  0  0
   -1.9951    0.3455    1.6410 S   0  0  0  0  0  0  0  0  0  0  0  0
   -2.0370    1.0584   -0.3704 P   0  0  0  0  0  0  0  0  0  0  0  0
   -0.3261    1.7605   -1.0195 S   0  0  0  0  0  0  0  0  0  0  0  0
   -3.1562    2.1612   -0.4062 O   0  0  0  0  0  0  0  0  0  0  0  0
   -4.5855    1.9114   -0.4055 C   0  0  0  0  0  0  0  0  0  0  0  0
   -5.0477    1.1836    0.8379 C   0  0  0  0  0  0  0  0  0  0  0  0
   -2.6915   -0.0815   -1.2711 O   0  0  0  0  0  0  0  0  0  0  0  0
   -2.0152   -1.2899   -1.6610 C   0  0  0  0  0  0  0  0  0  0  0  0
   -2.4539   -2.4538   -0.7931 C   0  0  0  0  0  0  0  0  0  0  0  0
    3.7076    0.9664   -2.0360 H   0  0  0  0  0  0  0  0  0  0  0  0
    3.5277    0.6833   -3.7754 H   0  0  0  0  0  0  0  0  0  0  0  0
    2.1904    1.3760   -2.8360 H   0  0  0  0  0  0  0  0  0  0  0  0
    3.3009   -1.4434   -2.4105 H   0  0  0  0  0  0  0  0  0  0  0  0
    1.8346   -1.0655   -3.3633 H   0  0  0  0  0  0  0  0  0  0  0  0
    4.8849   -2.5824    0.8977 H   0  0  0  0  0  0  0  0  0  0  0  0
    4.6828   -0.8547    1.3237 H   0  0  0  0  0  0  0  0  0  0  0  0
    4.3116   -2.3809    3.2958 H   0  0  0  0  0  0  0  0  0  0  0  0
    2.8964   -1.3955    2.9028 H   0  0  0  0  0  0  0  0  0  0  0  0
    2.9370   -3.1040    2.4381 H   0  0  0  0  0  0  0  0  0  0  0  0
    0.3214    0.9980    1.5105 H   0  0  0  0  0  0  0  0  0  0  0  0
   -0.0938    0.0307    2.9702 H   0  0  0  0  0  0  0  0  0  0  0  0
   -5.0093    2.9149   -0.4671 H   0  0  0  0  0  0  0  0  0  0  0  0
   -4.8309    1.3467   -1.3064 H   0  0  0  0  0  0  0  0  0  0  0  0
   -4.6199    0.1835    0.8729 H   0  0  0  0  0  0  0  0  0  0  0  0
   -4.7428    1.7232    1.7307 H   0  0  0  0  0  0  0  0  0  0  0  0
   -6.1303    1.1044    0.8193 H   0  0  0  0  0  0  0  0  0  0  0  0
   -2.3025   -1.4445   -2.7032 H   0  0  0  0  0  0  0  0  0  0  0  0
   -0.9326   -1.1335   -1.6096 H   0  0  0  0  0  0  0  0  0  0  0  0
   -1.9856   -3.3617   -1.1587 H   0  0  0  0  0  0  0  0  0  0  0  0
   -2.1535   -2.2997    0.2408 H   0  0  0  0  0  0  0  0  0  0  0  0
   -3.5338   -2.5623   -0.8380 H   0  0  0  0  0  0  0  0  0  0  0  0
  1  2  1  0  0  0  0
  2  3  1  0  0  0  0
  3  4  2  0  0  0  0
  4  5  2  0  0  0  0
  4  6  2  0  0  0  0
  6  7  1  0  0  0  0
  7  8  1  0  0  0  0
  4  9  1  0  0  0  0
  9 10  1  0  0  0  0
 10 11  1  0  0  0  0
 11 12  1  0  0  0  0
 12 13  2  0  0  0  0
 12 14  2  0  0  0  0
 14 15  1  0  0  0  0
 15 16  1  0  0  0  0
 12 17  2  0  0  0  0
 17 18  1  0  0  0  0
 18 19  1  0  0  0  0
  1 20  1  0  0  0  0
  1 21  1  0  0  0  0
  1 22  1  0  0  0  0
  2 23  1  0  0  0  0
  2 24  1  0  0  0  0
  7 25  1  0  0  0  0
  7 26  1  0  0  0  0
  8 27  1  0  0  0  0
  8 28  1  0  0  0  0
  8 29  1  0  0  0  0
 10 30  1  0  0  0  0
 10 31  1  0  0  0  0
 15 32  1  0  0  0  0
 15 33  1  0  0  0  0
 16 34  1  0  0  0  0
 16 35  1  0  0  0  0
 16 36  1  0  0  0  0
 18 37  1  0  0  0  0
 18 38  1  0  0  0  0
 19 39  1  0  0  0  0
 19 40  1  0  0  0  0
 19 41  1  0  0  0  0
M  END
