 xtb: 6.7.1 (edcfbbe)
          04092507313D

 38 37  0     0  0            999 V2000
    1.7748   -3.3720   -0.0502 C   0  0  0  0  0  0  0  0  0  0  0  0
    2.8722   -2.3289   -0.1876 C   0  0  0  0  0  0  0  0  0  0  0  0
    2.3223   -1.0844   -0.6603 O   0  0  0  0  0  0  0  0  0  0  0  0
    2.2201   -0.8962   -1.9678 C   0  0  0  0  0  0  0  0  0  0  0  0
    2.6590   -1.6537   -2.8012 O   0  0  0  0  0  0  0  0  0  0  0  0
    1.5077    0.4009   -2.2979 C   0  0  0  0  0  0  0  0  0  0  0  0
    0.4269    0.7335   -1.2767 C   0  0  0  0  0  0  0  0  0  0  0  0
   -0.0884    1.6585   -1.5558 H   0  0  0  0  0  0  0  0  0  0  0  0
    0.9784    0.9151    0.1232 C   0  0  0  0  0  0  0  0  0  0  0  0
    0.4475    0.4134    1.0950 O   0  0  0  0  0  0  0  0  0  0  0  0
    2.0240    1.6908    0.1508 O   0  0  0  0  0  0  0  0  0  0  0  0
    2.5712    2.0495    1.4385 C   0  0  0  0  0  0  0  0  0  0  0  0
    1.8658    3.2792    1.9865 C   0  0  0  0  0  0  0  0  0  0  0  0
   -0.8205   -0.5989   -1.2009 S   0  0  0  0  0  0  0  0  0  0  0  0
   -2.0003    0.1526    0.4141 P   0  0  0  0  0  0  0  0  0  0  0  0
   -2.0010    2.0645    0.8344 S   0  0  0  0  0  0  0  0  0  0  0  0
   -3.4550   -0.1819   -0.1539 O   0  0  0  0  0  0  0  0  0  0  0  0
   -3.8650   -1.5022   -0.5425 C   0  0  0  0  0  0  0  0  0  0  0  0
   -1.9646   -0.9015    1.6160 O   0  0  0  0  0  0  0  0  0  0  0  0
   -1.2636   -0.7917    2.8539 C   0  0  0  0  0  0  0  0  0  0  0  0
    1.3588   -3.6065   -1.0275 H   0  0  0  0  0  0  0  0  0  0  0  0
    2.1857   -4.2747    0.3892 H   0  0  0  0  0  0  0  0  0  0  0  0
    0.9769   -2.9928    0.5842 H   0  0  0  0  0  0  0  0  0  0  0  0
    3.6406   -2.6592   -0.8919 H   0  0  0  0  0  0  0  0  0  0  0  0
    3.3178   -2.0873    0.7779 H   0  0  0  0  0  0  0  0  0  0  0  0
    1.0793    0.3053   -3.2953 H   0  0  0  0  0  0  0  0  0  0  0  0
    2.2460    1.2062   -2.3049 H   0  0  0  0  0  0  0  0  0  0  0  0
    2.4579    1.1991    2.1151 H   0  0  0  0  0  0  0  0  0  0  0  0
    3.6248    2.2458    1.2409 H   0  0  0  0  0  0  0  0  0  0  0  0
    0.8009    3.0832    2.1024 H   0  0  0  0  0  0  0  0  0  0  0  0
    2.2853    3.5351    2.9536 H   0  0  0  0  0  0  0  0  0  0  0  0
    1.9893    4.1182    1.3077 H   0  0  0  0  0  0  0  0  0  0  0  0
   -3.8911   -2.1553    0.3280 H   0  0  0  0  0  0  0  0  0  0  0  0
   -3.1786   -1.9013   -1.2904 H   0  0  0  0  0  0  0  0  0  0  0  0
   -4.8596   -1.3792   -0.9637 H   0  0  0  0  0  0  0  0  0  0  0  0
   -0.2730   -1.2309    2.7562 H   0  0  0  0  0  0  0  0  0  0  0  0
   -1.8633   -1.3396    3.5778 H   0  0  0  0  0  0  0  0  0  0  0  0
   -1.1717    0.2543    3.1457 H   0  0  0  0  0  0  0  0  0  0  0  0
  1  2  1  0  0  0  0
  2  3  1  0  0  0  0
  3  4  1  0  0  0  0
  4  5  2  0  0  0  0
  4  6  1  0  0  0  0
  6  7  1  0  0  0  0
  7  8  1  0  0  0  0
  7  9  1  0  0  0  0
  9 10  2  0  0  0  0
  9 11  4  0  0  0  0
 11 12  1  0  0  0  0
 12 13  1  0  0  0  0
  7 14  1  0  0  0  0
 14 15  1  0  0  0  0
 15 16  2  0  0  0  0
 15 17  1  0  0  0  0
 17 18  1  0  0  0  0
 15 19  2  0  0  0  0
 19 20  1  0  0  0  0
  1 21  1  0  0  0  0
  1 22  1  0  0  0  0
  1 23  1  0  0  0  0
  2 24  1  0  0  0  0
  2 25  1  0  0  0  0
  6 26  1  0  0  0  0
  6 27  1  0  0  0  0
 12 28  1  0  0  0  0
 12 29  1  0  0  0  0
 13 30  1  0  0  0  0
 13 31  1  0  0  0  0
 13 32  1  0  0  0  0
 18 33  1  0  0  0  0
 18 34  1  0  0  0  0
 18 35  1  0  0  0  0
 20 36  1  0  0  0  0
 20 37  1  0  0  0  0
 20 38  1  0  0  0  0
M  END
