 xtb: 6.7.1 (edcfbbe)
          04092507313D

 38 37  0     0  0            999 V2000
    4.9375    0.3244   -1.2106 C   0  0  0  0  0  0  0  0  0  0  0  0
    4.4749   -1.0837   -1.5467 C   0  0  0  0  0  0  0  0  0  0  0  0
    3.0395   -1.1947   -1.4888 O   0  0  0  0  0  0  0  0  0  0  0  0
    2.4715   -1.3866   -0.3132 C   0  0  0  0  0  0  0  0  0  0  0  0
    3.0704   -1.4961    0.7313 O   0  0  0  0  0  0  0  0  0  0  0  0
    0.9617   -1.5022   -0.4423 C   0  0  0  0  0  0  0  0  0  0  0  0
    0.3755   -0.2696   -1.1340 C   0  0  0  0  0  0  0  0  0  0  0  0
    0.8481   -0.1344   -2.1104 H   0  0  0  0  0  0  0  0  0  0  0  0
    0.5821    0.9722   -0.2904 C   0  0  0  0  0  0  0  0  0  0  0  0
   -0.3423    1.6315    0.1428 O   0  0  0  0  0  0  0  0  0  0  0  0
    1.8471    1.2271   -0.0986 O   0  0  0  0  0  0  0  0  0  0  0  0
    2.2015    2.2771    0.8286 C   0  0  0  0  0  0  0  0  0  0  0  0
    2.2436    1.7259    2.2441 C   0  0  0  0  0  0  0  0  0  0  0  0
   -1.4027   -0.4494   -1.4695 S   0  0  0  0  0  0  0  0  0  0  0  0
   -2.3052    0.0487    0.3982 P   0  0  0  0  0  0  0  0  0  0  0  0
   -1.3982   -0.3569    2.0895 S   0  0  0  0  0  0  0  0  0  0  0  0
   -2.9770    1.4777    0.3305 O   0  0  0  0  0  0  0  0  0  0  0  0
   -3.8289    1.8831   -0.7577 C   0  0  0  0  0  0  0  0  0  0  0  0
   -3.6417   -0.8396    0.2360 O   0  0  0  0  0  0  0  0  0  0  0  0
   -3.6138   -2.2645    0.3331 C   0  0  0  0  0  0  0  0  0  0  0  0
    4.6968    0.5553   -0.1761 H   0  0  0  0  0  0  0  0  0  0  0  0
    6.0119    0.3904   -1.3472 H   0  0  0  0  0  0  0  0  0  0  0  0
    4.4467    1.0453   -1.8586 H   0  0  0  0  0  0  0  0  0  0  0  0
    4.9078   -1.8067   -0.8495 H   0  0  0  0  0  0  0  0  0  0  0  0
    4.7222   -1.3506   -2.5742 H   0  0  0  0  0  0  0  0  0  0  0  0
    0.5377   -1.6279    0.5566 H   0  0  0  0  0  0  0  0  0  0  0  0
    0.7345   -2.3816   -1.0471 H   0  0  0  0  0  0  0  0  0  0  0  0
    3.1843    2.6123    0.4977 H   0  0  0  0  0  0  0  0  0  0  0  0
    1.4689    3.0836    0.7421 H   0  0  0  0  0  0  0  0  0  0  0  0
    1.2483    1.4149    2.5587 H   0  0  0  0  0  0  0  0  0  0  0  0
    2.9005    0.8600    2.2895 H   0  0  0  0  0  0  0  0  0  0  0  0
    2.6050    2.4913    2.9222 H   0  0  0  0  0  0  0  0  0  0  0  0
   -4.0756    2.9208   -0.5488 H   0  0  0  0  0  0  0  0  0  0  0  0
   -4.7251    1.2654   -0.7773 H   0  0  0  0  0  0  0  0  0  0  0  0
   -3.2935    1.7977   -1.7034 H   0  0  0  0  0  0  0  0  0  0  0  0
   -3.0281   -2.5696    1.2023 H   0  0  0  0  0  0  0  0  0  0  0  0
   -3.1857   -2.6893   -0.5747 H   0  0  0  0  0  0  0  0  0  0  0  0
   -4.6498   -2.5724    0.4488 H   0  0  0  0  0  0  0  0  0  0  0  0
  1  2  1  0  0  0  0
  2  3  1  0  0  0  0
  3  4  1  0  0  0  0
  4  5  2  0  0  0  0
  4  6  1  0  0  0  0
  6  7  1  0  0  0  0
  7  8  1  0  0  0  0
  7  9  1  0  0  0  0
  9 10  2  0  0  0  0
  9 11  4  0  0  0  0
 11 12  1  0  0  0  0
 12 13  1  0  0  0  0
  7 14  1  0  0  0  0
 14 15  1  0  0  0  0
 15 16  2  0  0  0  0
 15 17  2  0  0  0  0
 17 18  1  0  0  0  0
 15 19  1  0  0  0  0
 19 20  1  0  0  0  0
  1 21  1  0  0  0  0
  1 22  1  0  0  0  0
  1 23  1  0  0  0  0
  2 24  1  0  0  0  0
  2 25  1  0  0  0  0
  6 26  1  0  0  0  0
  6 27  1  0  0  0  0
 12 28  1  0  0  0  0
 12 29  1  0  0  0  0
 13 30  1  0  0  0  0
 13 31  1  0  0  0  0
 13 32  1  0  0  0  0
 18 33  1  0  0  0  0
 18 34  1  0  0  0  0
 18 35  1  0  0  0  0
 20 36  1  0  0  0  0
 20 37  1  0  0  0  0
 20 38  1  0  0  0  0
M  END
