 xtb: 6.7.1 (edcfbbe)
          04092505203D

 41 40  0     0  0            999 V2000
    4.5665    0.4062   -2.0382 C   0  0  0  0  0  0  0  0  0  0  0  0
    4.4651    1.0123   -0.6538 C   0  0  0  0  0  0  0  0  0  0  0  0
    3.6550    0.2165    0.2286 O   0  0  0  0  0  0  0  0  0  0  0  0
    2.0897    0.0309    0.0179 P   0  0  0  0  0  0  0  0  0  0  0  0
    1.1722    1.6827   -0.5273 S   0  0  0  0  0  0  0  0  0  0  0  0
    1.6351   -0.5900    1.4019 O   0  0  0  0  0  0  0  0  0  0  0  0
    1.4600    0.2084    2.5895 C   0  0  0  0  0  0  0  0  0  0  0  0
    2.7366    0.2651    3.4030 C   0  0  0  0  0  0  0  0  0  0  0  0
    1.9438   -1.6820   -1.1889 S   0  0  0  0  0  0  0  0  0  0  0  0
    0.1778   -1.6431   -1.5871 C   0  0  0  0  0  0  0  0  0  0  0  0
   -0.8941   -1.9311   -0.1447 S   0  0  0  0  0  0  0  0  0  0  0  0
   -1.9712   -0.1165   -0.0972 P   0  0  0  0  0  0  0  0  0  0  0  0
   -2.0757    0.8191   -1.8240 S   0  0  0  0  0  0  0  0  0  0  0  0
   -1.3464    0.5919    1.1736 O   0  0  0  0  0  0  0  0  0  0  0  0
   -2.0349    1.6048    1.9440 C   0  0  0  0  0  0  0  0  0  0  0  0
   -2.2805    2.8639    1.1395 C   0  0  0  0  0  0  0  0  0  0  0  0
   -3.3908   -0.5428    0.4781 O   0  0  0  0  0  0  0  0  0  0  0  0
   -4.4181   -1.1066   -0.3605 C   0  0  0  0  0  0  0  0  0  0  0  0
   -5.7609   -0.8192    0.2811 C   0  0  0  0  0  0  0  0  0  0  0  0
    5.2851    0.9691   -2.6252 H   0  0  0  0  0  0  0  0  0  0  0  0
    4.8828   -0.6319   -1.9742 H   0  0  0  0  0  0  0  0  0  0  0  0
    3.5973    0.4468   -2.5340 H   0  0  0  0  0  0  0  0  0  0  0  0
    4.0338    2.0174   -0.7047 H   0  0  0  0  0  0  0  0  0  0  0  0
    5.4356    1.0471   -0.1570 H   0  0  0  0  0  0  0  0  0  0  0  0
    1.1327    1.2100    2.2902 H   0  0  0  0  0  0  0  0  0  0  0  0
    0.6569   -0.2908    3.1355 H   0  0  0  0  0  0  0  0  0  0  0  0
    2.5461    0.8022    4.3270 H   0  0  0  0  0  0  0  0  0  0  0  0
    3.0726   -0.7421    3.6330 H   0  0  0  0  0  0  0  0  0  0  0  0
    3.5175    0.7763    2.8454 H   0  0  0  0  0  0  0  0  0  0  0  0
    0.0201   -2.4549   -2.2926 H   0  0  0  0  0  0  0  0  0  0  0  0
   -0.0919   -0.6802   -2.0319 H   0  0  0  0  0  0  0  0  0  0  0  0
   -2.9716    1.1791    2.3098 H   0  0  0  0  0  0  0  0  0  0  0  0
   -1.3584    1.7923    2.7797 H   0  0  0  0  0  0  0  0  0  0  0  0
   -2.9849    2.6661    0.3327 H   0  0  0  0  0  0  0  0  0  0  0  0
   -2.6861    3.6354    1.7861 H   0  0  0  0  0  0  0  0  0  0  0  0
   -1.3487    3.2140    0.6984 H   0  0  0  0  0  0  0  0  0  0  0  0
   -4.3431   -0.6545   -1.3554 H   0  0  0  0  0  0  0  0  0  0  0  0
   -4.2340   -2.1808   -0.4387 H   0  0  0  0  0  0  0  0  0  0  0  0
   -5.9261    0.2528    0.3439 H   0  0  0  0  0  0  0  0  0  0  0  0
   -6.5442   -1.2656   -0.3225 H   0  0  0  0  0  0  0  0  0  0  0  0
   -5.7926   -1.2415    1.2814 H   0  0  0  0  0  0  0  0  0  0  0  0
  1  2  1  0  0  0  0
  2  3  1  0  0  0  0
  3  4  2  0  0  0  0
  4  5  2  0  0  0  0
  4  6  2  0  0  0  0
  6  7  1  0  0  0  0
  7  8  1  0  0  0  0
  4  9  1  0  0  0  0
  9 10  1  0  0  0  0
 10 11  1  0  0  0  0
 11 12  1  0  0  0  0
 12 13  2  0  0  0  0
 12 14  2  0  0  0  0
 14 15  1  0  0  0  0
 15 16  1  0  0  0  0
 12 17  2  0  0  0  0
 17 18  1  0  0  0  0
 18 19  1  0  0  0  0
  1 20  1  0  0  0  0
  1 21  1  0  0  0  0
  1 22  1  0  0  0  0
  2 23  1  0  0  0  0
  2 24  1  0  0  0  0
  7 25  1  0  0  0  0
  7 26  1  0  0  0  0
  8 27  1  0  0  0  0
  8 28  1  0  0  0  0
  8 29  1  0  0  0  0
 10 30  1  0  0  0  0
 10 31  1  0  0  0  0
 15 32  1  0  0  0  0
 15 33  1  0  0  0  0
 16 34  1  0  0  0  0
 16 35  1  0  0  0  0
 16 36  1  0  0  0  0
 18 37  1  0  0  0  0
 18 38  1  0  0  0  0
 19 39  1  0  0  0  0
 19 40  1  0  0  0  0
 19 41  1  0  0  0  0
M  END
