 xtb: 6.7.1 (edcfbbe)
          04092507313D

 38 37  0     0  0            999 V2000
    3.5100   -1.2208    1.9402 C   0  0  0  0  0  0  0  0  0  0  0  0
    2.8637   -2.1028    0.8844 C   0  0  0  0  0  0  0  0  0  0  0  0
    2.6609   -1.3738   -0.3445 O   0  0  0  0  0  0  0  0  0  0  0  0
    1.6209   -0.5944   -0.4551 C   0  0  0  0  0  0  0  0  0  0  0  0
    0.7901   -0.4087    0.4247 O   0  0  0  0  0  0  0  0  0  0  0  0
    1.5168    0.0916   -1.7929 C   0  0  0  0  0  0  0  0  0  0  0  0
    0.3053    1.0097   -1.7556 C   0  0  0  0  0  0  0  0  0  0  0  0
    0.2460    1.6218   -2.6593 H   0  0  0  0  0  0  0  0  0  0  0  0
    0.3137    1.9268   -0.5409 C   0  0  0  0  0  0  0  0  0  0  0  0
   -0.6835    2.2885    0.0395 O   0  0  0  0  0  0  0  0  0  0  0  0
    1.5381    2.3121   -0.2468 O   0  0  0  0  0  0  0  0  0  0  0  0
    1.7301    3.2231    0.8551 C   0  0  0  0  0  0  0  0  0  0  0  0
    2.9222    4.1078    0.5440 C   0  0  0  0  0  0  0  0  0  0  0  0
   -1.2764    0.0913   -1.7936 S   0  0  0  0  0  0  0  0  0  0  0  0
   -1.6468   -0.9598    0.0186 P   0  0  0  0  0  0  0  0  0  0  0  0
   -0.8961   -2.7282    0.4111 S   0  0  0  0  0  0  0  0  0  0  0  0
   -1.8299    0.0446    1.2489 O   0  0  0  0  0  0  0  0  0  0  0  0
   -1.0402    0.0963    2.4300 C   0  0  0  0  0  0  0  0  0  0  0  0
   -3.1844   -1.2587   -0.3148 O   0  0  0  0  0  0  0  0  0  0  0  0
   -4.1782   -0.2416   -0.5312 C   0  0  0  0  0  0  0  0  0  0  0  0
    4.4432   -0.8100    1.5651 H   0  0  0  0  0  0  0  0  0  0  0  0
    2.8414   -0.4055    2.2079 H   0  0  0  0  0  0  0  0  0  0  0  0
    3.7086   -1.8144    2.8261 H   0  0  0  0  0  0  0  0  0  0  0  0
    1.8985   -2.4897    1.2241 H   0  0  0  0  0  0  0  0  0  0  0  0
    3.5157   -2.9273    0.5979 H   0  0  0  0  0  0  0  0  0  0  0  0
    1.4109   -0.6587   -2.5778 H   0  0  0  0  0  0  0  0  0  0  0  0
    2.4307    0.6586   -1.9751 H   0  0  0  0  0  0  0  0  0  0  0  0
    0.8121    3.8029    0.9905 H   0  0  0  0  0  0  0  0  0  0  0  0
    1.9038    2.6207    1.7523 H   0  0  0  0  0  0  0  0  0  0  0  0
    2.7351    4.6881   -0.3547 H   0  0  0  0  0  0  0  0  0  0  0  0
    3.0887    4.7837    1.3762 H   0  0  0  0  0  0  0  0  0  0  0  0
    3.8090    3.5001    0.3937 H   0  0  0  0  0  0  0  0  0  0  0  0
   -1.7314    0.3134    3.2418 H   0  0  0  0  0  0  0  0  0  0  0  0
   -0.3024    0.8912    2.3313 H   0  0  0  0  0  0  0  0  0  0  0  0
   -0.5410   -0.8596    2.5948 H   0  0  0  0  0  0  0  0  0  0  0  0
   -3.9330    0.6589    0.0296 H   0  0  0  0  0  0  0  0  0  0  0  0
   -5.1144   -0.6679   -0.1783 H   0  0  0  0  0  0  0  0  0  0  0  0
   -4.2350   -0.0200   -1.5960 H   0  0  0  0  0  0  0  0  0  0  0  0
  1  2  1  0  0  0  0
  2  3  1  0  0  0  0
  3  4  4  0  0  0  0
  4  5  2  0  0  0  0
  4  6  1  0  0  0  0
  6  7  1  0  0  0  0
  7  8  1  0  0  0  0
  7  9  1  0  0  0  0
  9 10  2  0  0  0  0
  9 11  1  0  0  0  0
 11 12  1  0  0  0  0
 12 13  1  0  0  0  0
  7 14  1  0  0  0  0
 14 15  1  0  0  0  0
 15 16  2  0  0  0  0
 15 17  1  0  0  0  0
 17 18  1  0  0  0  0
 15 19  1  0  0  0  0
 19 20  1  0  0  0  0
  1 21  1  0  0  0  0
  1 22  1  0  0  0  0
  1 23  1  0  0  0  0
  2 24  1  0  0  0  0
  2 25  1  0  0  0  0
  6 26  1  0  0  0  0
  6 27  1  0  0  0  0
 12 28  1  0  0  0  0
 12 29  1  0  0  0  0
 13 30  1  0  0  0  0
 13 31  1  0  0  0  0
 13 32  1  0  0  0  0
 18 33  1  0  0  0  0
 18 34  1  0  0  0  0
 18 35  1  0  0  0  0
 20 36  1  0  0  0  0
 20 37  1  0  0  0  0
 20 38  1  0  0  0  0
M  END
