 xtb: 6.7.1 (edcfbbe)
          04092505203D

 41 40  0     0  0            999 V2000
    3.1961    0.2076    3.3548 C   0  0  0  0  0  0  0  0  0  0  0  0
    1.8876   -0.3098    2.7961 C   0  0  0  0  0  0  0  0  0  0  0  0
    1.5957    0.2688    1.5049 O   0  0  0  0  0  0  0  0  0  0  0  0
    2.4157   -0.1258    0.2091 P   0  0  0  0  0  0  0  0  0  0  0  0
    3.1029   -1.9655    0.1619 S   0  0  0  0  0  0  0  0  0  0  0  0
    3.5171    1.0167    0.1536 O   0  0  0  0  0  0  0  0  0  0  0  0
    4.6926    0.9157   -0.6685 C   0  0  0  0  0  0  0  0  0  0  0  0
    4.3631    0.9794   -2.1460 C   0  0  0  0  0  0  0  0  0  0  0  0
    1.0183    0.4051   -1.2870 S   0  0  0  0  0  0  0  0  0  0  0  0
    0.0706   -1.1385   -1.2060 C   0  0  0  0  0  0  0  0  0  0  0  0
   -1.0649   -1.1885    0.1957 S   0  0  0  0  0  0  0  0  0  0  0  0
   -2.4639    0.2256   -0.5912 P   0  0  0  0  0  0  0  0  0  0  0  0
   -2.7315    0.0490   -2.5232 S   0  0  0  0  0  0  0  0  0  0  0  0
   -2.0100    1.6804   -0.1997 O   0  0  0  0  0  0  0  0  0  0  0  0
   -2.2193    2.3287    1.0799 C   0  0  0  0  0  0  0  0  0  0  0  0
   -1.4652    1.6477    2.2016 C   0  0  0  0  0  0  0  0  0  0  0  0
   -3.7486    0.0034    0.3119 O   0  0  0  0  0  0  0  0  0  0  0  0
   -4.5643   -1.1785    0.1624 C   0  0  0  0  0  0  0  0  0  0  0  0
   -5.9033   -0.9038    0.8160 C   0  0  0  0  0  0  0  0  0  0  0  0
    3.3311   -0.1701    4.3634 H   0  0  0  0  0  0  0  0  0  0  0  0
    4.0241   -0.1346    2.7351 H   0  0  0  0  0  0  0  0  0  0  0  0
    3.1954    1.2942    3.3705 H   0  0  0  0  0  0  0  0  0  0  0  0
    1.0370   -0.0206    3.4142 H   0  0  0  0  0  0  0  0  0  0  0  0
    1.9135   -1.3987    2.6884 H   0  0  0  0  0  0  0  0  0  0  0  0
    5.3052    1.7620   -0.3552 H   0  0  0  0  0  0  0  0  0  0  0  0
    5.2019   -0.0236   -0.4298 H   0  0  0  0  0  0  0  0  0  0  0  0
    5.2837    1.0178   -2.7195 H   0  0  0  0  0  0  0  0  0  0  0  0
    3.7999    0.0948   -2.4415 H   0  0  0  0  0  0  0  0  0  0  0  0
    3.7645    1.8607   -2.3628 H   0  0  0  0  0  0  0  0  0  0  0  0
    0.7561   -1.9800   -1.0987 H   0  0  0  0  0  0  0  0  0  0  0  0
   -0.5032   -1.2065   -2.1312 H   0  0  0  0  0  0  0  0  0  0  0  0
   -1.8522    3.3412    0.9048 H   0  0  0  0  0  0  0  0  0  0  0  0
   -3.2918    2.3484    1.2806 H   0  0  0  0  0  0  0  0  0  0  0  0
   -1.5796    2.2307    3.1103 H   0  0  0  0  0  0  0  0  0  0  0  0
   -1.8580    0.6461    2.3677 H   0  0  0  0  0  0  0  0  0  0  0  0
   -0.4094    1.5748    1.9517 H   0  0  0  0  0  0  0  0  0  0  0  0
   -4.6741   -1.3927   -0.9057 H   0  0  0  0  0  0  0  0  0  0  0  0
   -4.0454   -2.0117    0.6433 H   0  0  0  0  0  0  0  0  0  0  0  0
   -6.3929   -0.0662    0.3271 H   0  0  0  0  0  0  0  0  0  0  0  0
   -6.5292   -1.7854    0.7256 H   0  0  0  0  0  0  0  0  0  0  0  0
   -5.7642   -0.6682    1.8670 H   0  0  0  0  0  0  0  0  0  0  0  0
  1  2  1  0  0  0  0
  2  3  1  0  0  0  0
  3  4  2  0  0  0  0
  4  5  2  0  0  0  0
  4  6  2  0  0  0  0
  6  7  1  0  0  0  0
  7  8  1  0  0  0  0
  4  9  1  0  0  0  0
  9 10  1  0  0  0  0
 10 11  1  0  0  0  0
 11 12  1  0  0  0  0
 12 13  2  0  0  0  0
 12 14  2  0  0  0  0
 14 15  1  0  0  0  0
 15 16  1  0  0  0  0
 12 17  2  0  0  0  0
 17 18  1  0  0  0  0
 18 19  1  0  0  0  0
  1 20  1  0  0  0  0
  1 21  1  0  0  0  0
  1 22  1  0  0  0  0
  2 23  1  0  0  0  0
  2 24  1  0  0  0  0
  7 25  1  0  0  0  0
  7 26  1  0  0  0  0
  8 27  1  0  0  0  0
  8 28  1  0  0  0  0
  8 29  1  0  0  0  0
 10 30  1  0  0  0  0
 10 31  1  0  0  0  0
 15 32  1  0  0  0  0
 15 33  1  0  0  0  0
 16 34  1  0  0  0  0
 16 35  1  0  0  0  0
 16 36  1  0  0  0  0
 18 37  1  0  0  0  0
 18 38  1  0  0  0  0
 19 39  1  0  0  0  0
 19 40  1  0  0  0  0
 19 41  1  0  0  0  0
M  END
