 xtb: 6.7.1 (edcfbbe)
          04092507313D

 38 37  0     0  0            999 V2000
    3.7825   -1.7195    1.5435 C   0  0  0  0  0  0  0  0  0  0  0  0
    2.9139   -2.5358    0.6004 C   0  0  0  0  0  0  0  0  0  0  0  0
    2.6753   -1.8112   -0.6234 O   0  0  0  0  0  0  0  0  0  0  0  0
    1.6777   -0.9685   -0.6703 C   0  0  0  0  0  0  0  0  0  0  0  0
    0.9124   -0.7586    0.2597 O   0  0  0  0  0  0  0  0  0  0  0  0
    1.5391   -0.2816   -2.0024 C   0  0  0  0  0  0  0  0  0  0  0  0
    0.5866    0.8940   -1.8705 C   0  0  0  0  0  0  0  0  0  0  0  0
    0.5195    1.4506   -2.8095 H   0  0  0  0  0  0  0  0  0  0  0  0
    1.0105    1.8640   -0.7753 C   0  0  0  0  0  0  0  0  0  0  0  0
    2.0597    1.7725   -0.1774 O   0  0  0  0  0  0  0  0  0  0  0  0
    0.1299    2.8261   -0.6236 O   0  0  0  0  0  0  0  0  0  0  0  0
    0.4198    3.9004    0.2934 C   0  0  0  0  0  0  0  0  0  0  0  0
    0.0538    3.5417    1.7233 C   0  0  0  0  0  0  0  0  0  0  0  0
   -1.1625    0.3922   -1.6351 S   0  0  0  0  0  0  0  0  0  0  0  0
   -1.4994   -0.5773    0.2245 P   0  0  0  0  0  0  0  0  0  0  0  0
   -1.2792   -2.5211    0.4824 S   0  0  0  0  0  0  0  0  0  0  0  0
   -1.1286    0.4220    1.4045 O   0  0  0  0  0  0  0  0  0  0  0  0
   -0.4351    0.0183    2.5865 C   0  0  0  0  0  0  0  0  0  0  0  0
   -3.0803   -0.2488    0.2617 O   0  0  0  0  0  0  0  0  0  0  0  0
   -4.0220   -0.9319   -0.5647 C   0  0  0  0  0  0  0  0  0  0  0  0
    3.9532   -2.2831    2.4545 H   0  0  0  0  0  0  0  0  0  0  0  0
    4.7354   -1.4939    1.0733 H   0  0  0  0  0  0  0  0  0  0  0  0
    3.2861   -0.7836    1.7928 H   0  0  0  0  0  0  0  0  0  0  0  0
    1.9497   -2.7771    1.0578 H   0  0  0  0  0  0  0  0  0  0  0  0
    3.4170   -3.4481    0.2810 H   0  0  0  0  0  0  0  0  0  0  0  0
    1.1583   -0.9977   -2.7330 H   0  0  0  0  0  0  0  0  0  0  0  0
    2.5263    0.0532   -2.3237 H   0  0  0  0  0  0  0  0  0  0  0  0
    1.4842    4.1406    0.2154 H   0  0  0  0  0  0  0  0  0  0  0  0
   -0.1885    4.7261   -0.0762 H   0  0  0  0  0  0  0  0  0  0  0  0
   -0.9684    3.1741    1.7659 H   0  0  0  0  0  0  0  0  0  0  0  0
    0.7192    2.7684    2.0991 H   0  0  0  0  0  0  0  0  0  0  0  0
    0.1478    4.4232    2.3488 H   0  0  0  0  0  0  0  0  0  0  0  0
    0.6092    0.3190    2.5071 H   0  0  0  0  0  0  0  0  0  0  0  0
   -0.4897   -1.0645    2.7119 H   0  0  0  0  0  0  0  0  0  0  0  0
   -0.9232    0.5229    3.4172 H   0  0  0  0  0  0  0  0  0  0  0  0
   -3.9750   -0.5481   -1.5839 H   0  0  0  0  0  0  0  0  0  0  0  0
   -4.9970   -0.7348   -0.1258 H   0  0  0  0  0  0  0  0  0  0  0  0
   -3.8150   -2.0044   -0.5612 H   0  0  0  0  0  0  0  0  0  0  0  0
  1  2  1  0  0  0  0
  2  3  1  0  0  0  0
  3  4  4  0  0  0  0
  4  5  2  0  0  0  0
  4  6  1  0  0  0  0
  6  7  1  0  0  0  0
  7  8  1  0  0  0  0
  7  9  1  0  0  0  0
  9 10  2  0  0  0  0
  9 11  4  0  0  0  0
 11 12  1  0  0  0  0
 12 13  1  0  0  0  0
  7 14  1  0  0  0  0
 14 15  1  0  0  0  0
 15 16  2  0  0  0  0
 15 17  1  0  0  0  0
 17 18  1  0  0  0  0
 15 19  1  0  0  0  0
 19 20  1  0  0  0  0
  1 21  1  0  0  0  0
  1 22  1  0  0  0  0
  1 23  1  0  0  0  0
  2 24  1  0  0  0  0
  2 25  1  0  0  0  0
  6 26  1  0  0  0  0
  6 27  1  0  0  0  0
 12 28  1  0  0  0  0
 12 29  1  0  0  0  0
 13 30  1  0  0  0  0
 13 31  1  0  0  0  0
 13 32  1  0  0  0  0
 18 33  1  0  0  0  0
 18 34  1  0  0  0  0
 18 35  1  0  0  0  0
 20 36  1  0  0  0  0
 20 37  1  0  0  0  0
 20 38  1  0  0  0  0
M  END
