 xtb: 6.7.1 (edcfbbe)
          04092507313D

 38 37  0     0  0            999 V2000
    4.5700   -3.8506   -1.2636 C   0  0  0  0  0  0  0  0  0  0  0  0
    4.2999   -2.4578   -0.7257 C   0  0  0  0  0  0  0  0  0  0  0  0
    3.2781   -1.8459   -1.5401 O   0  0  0  0  0  0  0  0  0  0  0  0
    2.4237   -1.0217   -0.9814 C   0  0  0  0  0  0  0  0  0  0  0  0
    2.4245   -0.7140    0.1938 O   0  0  0  0  0  0  0  0  0  0  0  0
    1.4267   -0.4781   -1.9837 C   0  0  0  0  0  0  0  0  0  0  0  0
    0.3156    0.2580   -1.2479 C   0  0  0  0  0  0  0  0  0  0  0  0
   -0.3129    0.8163   -1.9498 H   0  0  0  0  0  0  0  0  0  0  0  0
    0.9194    1.2614   -0.2781 C   0  0  0  0  0  0  0  0  0  0  0  0
    1.8134    2.0086   -0.6057 O   0  0  0  0  0  0  0  0  0  0  0  0
    0.3063    1.2725    0.8868 O   0  0  0  0  0  0  0  0  0  0  0  0
    0.7848    2.1602    1.9159 C   0  0  0  0  0  0  0  0  0  0  0  0
    1.6540    1.3927    2.8973 C   0  0  0  0  0  0  0  0  0  0  0  0
   -0.7599   -0.9369   -0.3865 S   0  0  0  0  0  0  0  0  0  0  0  0
   -2.2459    0.4145    0.3065 P   0  0  0  0  0  0  0  0  0  0  0  0
   -2.4070    2.1150   -0.6514 S   0  0  0  0  0  0  0  0  0  0  0  0
   -3.5628   -0.4976    0.2308 O   0  0  0  0  0  0  0  0  0  0  0  0
   -4.1235   -0.8877   -1.0276 C   0  0  0  0  0  0  0  0  0  0  0  0
   -2.1334    0.5842    1.8727 O   0  0  0  0  0  0  0  0  0  0  0  0
   -2.0151   -0.5460    2.7587 C   0  0  0  0  0  0  0  0  0  0  0  0
    3.6759   -4.4628   -1.1903 H   0  0  0  0  0  0  0  0  0  0  0  0
    4.8717   -3.7922   -2.3049 H   0  0  0  0  0  0  0  0  0  0  0  0
    5.3650   -4.3088   -0.6848 H   0  0  0  0  0  0  0  0  0  0  0  0
    5.1905   -1.8264   -0.7906 H   0  0  0  0  0  0  0  0  0  0  0  0
    3.9521   -2.4778    0.3113 H   0  0  0  0  0  0  0  0  0  0  0  0
    1.0327   -1.2917   -2.5913 H   0  0  0  0  0  0  0  0  0  0  0  0
    1.9565    0.2237   -2.6317 H   0  0  0  0  0  0  0  0  0  0  0  0
    1.3439    2.9666    1.4332 H   0  0  0  0  0  0  0  0  0  0  0  0
   -0.1160    2.5555    2.3890 H   0  0  0  0  0  0  0  0  0  0  0  0
    2.4722    0.9147    2.3626 H   0  0  0  0  0  0  0  0  0  0  0  0
    2.0566    2.0803    3.6333 H   0  0  0  0  0  0  0  0  0  0  0  0
    1.0709    0.6257    3.3987 H   0  0  0  0  0  0  0  0  0  0  0  0
   -3.4799   -1.6254   -1.5064 H   0  0  0  0  0  0  0  0  0  0  0  0
   -4.2375   -0.0154   -1.6730 H   0  0  0  0  0  0  0  0  0  0  0  0
   -5.0945   -1.3170   -0.7945 H   0  0  0  0  0  0  0  0  0  0  0  0
   -1.9557   -0.1194    3.7566 H   0  0  0  0  0  0  0  0  0  0  0  0
   -1.1107   -1.1072    2.5226 H   0  0  0  0  0  0  0  0  0  0  0  0
   -2.8889   -1.1877    2.6637 H   0  0  0  0  0  0  0  0  0  0  0  0
  1  2  1  0  0  0  0
  2  3  1  0  0  0  0
  3  4  4  0  0  0  0
  4  5  2  0  0  0  0
  4  6  1  0  0  0  0
  6  7  1  0  0  0  0
  7  8  1  0  0  0  0
  7  9  1  0  0  0  0
  9 10  2  0  0  0  0
  9 11  1  0  0  0  0
 11 12  1  0  0  0  0
 12 13  1  0  0  0  0
  7 14  1  0  0  0  0
 14 15  1  0  0  0  0
 15 16  2  0  0  0  0
 15 17  1  0  0  0  0
 17 18  1  0  0  0  0
 15 19  2  0  0  0  0
 19 20  1  0  0  0  0
  1 21  1  0  0  0  0
  1 22  1  0  0  0  0
  1 23  1  0  0  0  0
  2 24  1  0  0  0  0
  2 25  1  0  0  0  0
  6 26  1  0  0  0  0
  6 27  1  0  0  0  0
 12 28  1  0  0  0  0
 12 29  1  0  0  0  0
 13 30  1  0  0  0  0
 13 31  1  0  0  0  0
 13 32  1  0  0  0  0
 18 33  1  0  0  0  0
 18 34  1  0  0  0  0
 18 35  1  0  0  0  0
 20 36  1  0  0  0  0
 20 37  1  0  0  0  0
 20 38  1  0  0  0  0
M  END
