 xtb: 6.7.1 (edcfbbe)
          04092507313D

 38 37  0     0  0            999 V2000
    3.9086   -3.7589    0.4952 C   0  0  0  0  0  0  0  0  0  0  0  0
    2.8939   -2.6832    0.8270 C   0  0  0  0  0  0  0  0  0  0  0  0
    2.8903   -1.7285   -0.2553 O   0  0  0  0  0  0  0  0  0  0  0  0
    1.8836   -0.9020   -0.3565 C   0  0  0  0  0  0  0  0  0  0  0  0
    0.9514   -0.8715    0.4337 O   0  0  0  0  0  0  0  0  0  0  0  0
    1.9777    0.0095   -1.5511 C   0  0  0  0  0  0  0  0  0  0  0  0
    0.7760    0.9371   -1.6029 C   0  0  0  0  0  0  0  0  0  0  0  0
    0.7832    1.5376   -2.5161 H   0  0  0  0  0  0  0  0  0  0  0  0
    0.6942    1.8764   -0.4102 C   0  0  0  0  0  0  0  0  0  0  0  0
    1.5404    1.9305    0.4537 O   0  0  0  0  0  0  0  0  0  0  0  0
   -0.3836    2.6274   -0.4683 O   0  0  0  0  0  0  0  0  0  0  0  0
   -0.5850    3.6215    0.5549 C   0  0  0  0  0  0  0  0  0  0  0  0
    0.1332    4.9131    0.1991 C   0  0  0  0  0  0  0  0  0  0  0  0
   -0.8056    0.0145   -1.7679 S   0  0  0  0  0  0  0  0  0  0  0  0
   -1.4489   -0.6822    0.1382 P   0  0  0  0  0  0  0  0  0  0  0  0
   -1.3134   -2.5602    0.6808 S   0  0  0  0  0  0  0  0  0  0  0  0
   -1.2129    0.4587    1.2462 O   0  0  0  0  0  0  0  0  0  0  0  0
   -0.4868    0.2700    2.4591 C   0  0  0  0  0  0  0  0  0  0  0  0
   -3.0197   -0.4847   -0.1379 O   0  0  0  0  0  0  0  0  0  0  0  0
   -3.6500    0.7876   -0.3516 C   0  0  0  0  0  0  0  0  0  0  0  0
    3.6254   -4.2707   -0.4196 H   0  0  0  0  0  0  0  0  0  0  0  0
    4.8903   -3.3146    0.3626 H   0  0  0  0  0  0  0  0  0  0  0  0
    3.9442   -4.4767    1.3077 H   0  0  0  0  0  0  0  0  0  0  0  0
    3.1566   -2.1495    1.7453 H   0  0  0  0  0  0  0  0  0  0  0  0
    1.8830   -3.0896    0.9375 H   0  0  0  0  0  0  0  0  0  0  0  0
    2.0309   -0.5970   -2.4561 H   0  0  0  0  0  0  0  0  0  0  0  0
    2.9000    0.5877   -1.4649 H   0  0  0  0  0  0  0  0  0  0  0  0
   -1.6655    3.7614    0.5888 H   0  0  0  0  0  0  0  0  0  0  0  0
   -0.2247    3.2230    1.5069 H   0  0  0  0  0  0  0  0  0  0  0  0
   -0.1932    5.2662   -0.7750 H   0  0  0  0  0  0  0  0  0  0  0  0
   -0.0951    5.6648    0.9474 H   0  0  0  0  0  0  0  0  0  0  0  0
    1.2084    4.7513    0.1783 H   0  0  0  0  0  0  0  0  0  0  0  0
   -1.0481    0.7890    3.2335 H   0  0  0  0  0  0  0  0  0  0  0  0
    0.5123    0.6932    2.3509 H   0  0  0  0  0  0  0  0  0  0  0  0
   -0.4091   -0.7930    2.6915 H   0  0  0  0  0  0  0  0  0  0  0  0
   -3.0956    1.3700   -1.0877 H   0  0  0  0  0  0  0  0  0  0  0  0
   -3.7058    1.3304    0.5909 H   0  0  0  0  0  0  0  0  0  0  0  0
   -4.6457    0.5543   -0.7204 H   0  0  0  0  0  0  0  0  0  0  0  0
  1  2  1  0  0  0  0
  2  3  1  0  0  0  0
  3  4  4  0  0  0  0
  4  5  2  0  0  0  0
  4  6  1  0  0  0  0
  6  7  1  0  0  0  0
  7  8  1  0  0  0  0
  7  9  1  0  0  0  0
  9 10  2  0  0  0  0
  9 11  1  0  0  0  0
 11 12  1  0  0  0  0
 12 13  1  0  0  0  0
  7 14  1  0  0  0  0
 14 15  1  0  0  0  0
 15 16  2  0  0  0  0
 15 17  1  0  0  0  0
 17 18  1  0  0  0  0
 15 19  1  0  0  0  0
 19 20  1  0  0  0  0
  1 21  1  0  0  0  0
  1 22  1  0  0  0  0
  1 23  1  0  0  0  0
  2 24  1  0  0  0  0
  2 25  1  0  0  0  0
  6 26  1  0  0  0  0
  6 27  1  0  0  0  0
 12 28  1  0  0  0  0
 12 29  1  0  0  0  0
 13 30  1  0  0  0  0
 13 31  1  0  0  0  0
 13 32  1  0  0  0  0
 18 33  1  0  0  0  0
 18 34  1  0  0  0  0
 18 35  1  0  0  0  0
 20 36  1  0  0  0  0
 20 37  1  0  0  0  0
 20 38  1  0  0  0  0
M  END
