 xtb: 6.7.1 (edcfbbe)
          04092507313D

 38 37  0     0  0            999 V2000
    2.5359   -3.8523   -0.6953 C   0  0  0  0  0  0  0  0  0  0  0  0
    2.6731   -3.4545    0.7657 C   0  0  0  0  0  0  0  0  0  0  0  0
    2.7658   -2.0215    0.8911 O   0  0  0  0  0  0  0  0  0  0  0  0
    1.6584   -1.3261    1.0020 C   0  0  0  0  0  0  0  0  0  0  0  0
    0.5453   -1.8152    1.0547 O   0  0  0  0  0  0  0  0  0  0  0  0
    1.9247    0.1606    1.0651 C   0  0  0  0  0  0  0  0  0  0  0  0
    0.8653    0.9160    0.2753 C   0  0  0  0  0  0  0  0  0  0  0  0
    0.7730    0.5015   -0.7391 H   0  0  0  0  0  0  0  0  0  0  0  0
    1.1782    2.4010    0.1558 C   0  0  0  0  0  0  0  0  0  0  0  0
    2.1665    2.9141    0.6237 O   0  0  0  0  0  0  0  0  0  0  0  0
    0.2413    3.0267   -0.5220 O   0  0  0  0  0  0  0  0  0  0  0  0
    0.3959    4.4435   -0.7495 C   0  0  0  0  0  0  0  0  0  0  0  0
    1.2088    4.7038   -2.0071 C   0  0  0  0  0  0  0  0  0  0  0  0
   -0.7956    0.7599    1.0261 S   0  0  0  0  0  0  0  0  0  0  0  0
   -1.5854   -0.7900   -0.2113 P   0  0  0  0  0  0  0  0  0  0  0  0
   -0.5468   -1.3319   -1.7796 S   0  0  0  0  0  0  0  0  0  0  0  0
   -2.1118   -1.9823    0.6724 O   0  0  0  0  0  0  0  0  0  0  0  0
   -2.8964   -1.7714    1.8615 C   0  0  0  0  0  0  0  0  0  0  0  0
   -3.0014   -0.1415   -0.6272 O   0  0  0  0  0  0  0  0  0  0  0  0
   -3.0565    0.9939   -1.4928 C   0  0  0  0  0  0  0  0  0  0  0  0
    1.6182   -3.4413   -1.1137 H   0  0  0  0  0  0  0  0  0  0  0  0
    3.3784   -3.4749   -1.2679 H   0  0  0  0  0  0  0  0  0  0  0  0
    2.5032   -4.9338   -0.7734 H   0  0  0  0  0  0  0  0  0  0  0  0
    3.6021   -3.8283    1.1961 H   0  0  0  0  0  0  0  0  0  0  0  0
    1.8128   -3.8021    1.3445 H   0  0  0  0  0  0  0  0  0  0  0  0
    2.9150    0.3698    0.6603 H   0  0  0  0  0  0  0  0  0  0  0  0
    1.9039    0.4813    2.1094 H   0  0  0  0  0  0  0  0  0  0  0  0
   -0.6235    4.8157   -0.8496 H   0  0  0  0  0  0  0  0  0  0  0  0
    0.8807    4.8838    0.1258 H   0  0  0  0  0  0  0  0  0  0  0  0
    2.2237    4.3340   -1.8809 H   0  0  0  0  0  0  0  0  0  0  0  0
    0.7535    4.2047   -2.8581 H   0  0  0  0  0  0  0  0  0  0  0  0
    1.2441    5.7718   -2.1950 H   0  0  0  0  0  0  0  0  0  0  0  0
   -2.3291   -1.1765    2.5772 H   0  0  0  0  0  0  0  0  0  0  0  0
   -3.0841   -2.7672    2.2545 H   0  0  0  0  0  0  0  0  0  0  0  0
   -3.8286   -1.2694    1.6086 H   0  0  0  0  0  0  0  0  0  0  0  0
   -2.5959    1.8561   -1.0085 H   0  0  0  0  0  0  0  0  0  0  0  0
   -4.1127    1.1735   -1.6748 H   0  0  0  0  0  0  0  0  0  0  0  0
   -2.5381    0.7763   -2.4281 H   0  0  0  0  0  0  0  0  0  0  0  0
  1  2  1  0  0  0  0
  2  3  1  0  0  0  0
  3  4  4  0  0  0  0
  4  5  2  0  0  0  0
  4  6  1  0  0  0  0
  6  7  1  0  0  0  0
  7  8  1  0  0  0  0
  7  9  1  0  0  0  0
  9 10  2  0  0  0  0
  9 11  1  0  0  0  0
 11 12  1  0  0  0  0
 12 13  1  0  0  0  0
  7 14  1  0  0  0  0
 14 15  1  0  0  0  0
 15 16  2  0  0  0  0
 15 17  2  0  0  0  0
 17 18  1  0  0  0  0
 15 19  1  0  0  0  0
 19 20  1  0  0  0  0
  1 21  1  0  0  0  0
  1 22  1  0  0  0  0
  1 23  1  0  0  0  0
  2 24  1  0  0  0  0
  2 25  1  0  0  0  0
  6 26  1  0  0  0  0
  6 27  1  0  0  0  0
 12 28  1  0  0  0  0
 12 29  1  0  0  0  0
 13 30  1  0  0  0  0
 13 31  1  0  0  0  0
 13 32  1  0  0  0  0
 18 33  1  0  0  0  0
 18 34  1  0  0  0  0
 18 35  1  0  0  0  0
 20 36  1  0  0  0  0
 20 37  1  0  0  0  0
 20 38  1  0  0  0  0
M  END
