 xtb: 6.7.1 (edcfbbe)
          04092505203D

 41 40  0     0  0            999 V2000
    5.5907    1.5822   -0.6416 C   0  0  0  0  0  0  0  0  0  0  0  0
    4.3283    0.8753   -1.0914 C   0  0  0  0  0  0  0  0  0  0  0  0
    3.4784    0.7118    0.0626 O   0  0  0  0  0  0  0  0  0  0  0  0
    1.9330    0.3749   -0.0910 P   0  0  0  0  0  0  0  0  0  0  0  0
    0.9287    1.6028   -1.2380 S   0  0  0  0  0  0  0  0  0  0  0  0
    1.4491    0.3944    1.4041 O   0  0  0  0  0  0  0  0  0  0  0  0
    2.1258   -0.2945    2.4917 C   0  0  0  0  0  0  0  0  0  0  0  0
    1.3795   -1.5554    2.8769 C   0  0  0  0  0  0  0  0  0  0  0  0
    1.9963   -1.6410   -0.7739 S   0  0  0  0  0  0  0  0  0  0  0  0
    0.2716   -1.8167   -1.2730 C   0  0  0  0  0  0  0  0  0  0  0  0
   -0.8712   -1.9211    0.1478 S   0  0  0  0  0  0  0  0  0  0  0  0
   -2.0343   -0.2085   -0.1564 P   0  0  0  0  0  0  0  0  0  0  0  0
   -2.3197    0.3598   -2.0165 S   0  0  0  0  0  0  0  0  0  0  0  0
   -1.3937    0.8214    0.8580 O   0  0  0  0  0  0  0  0  0  0  0  0
   -1.8504    2.1920    0.9068 C   0  0  0  0  0  0  0  0  0  0  0  0
   -0.9985    2.9236    1.9210 C   0  0  0  0  0  0  0  0  0  0  0  0
   -3.3873   -0.5564    0.6075 O   0  0  0  0  0  0  0  0  0  0  0  0
   -4.4281   -1.3512    0.0045 C   0  0  0  0  0  0  0  0  0  0  0  0
   -5.7463   -0.9715    0.6488 C   0  0  0  0  0  0  0  0  0  0  0  0
    5.3457    2.5571   -0.2296 H   0  0  0  0  0  0  0  0  0  0  0  0
    6.0957    0.9941    0.1189 H   0  0  0  0  0  0  0  0  0  0  0  0
    6.2492    1.7090   -1.4945 H   0  0  0  0  0  0  0  0  0  0  0  0
    4.5458   -0.1166   -1.4960 H   0  0  0  0  0  0  0  0  0  0  0  0
    3.7863    1.4588   -1.8428 H   0  0  0  0  0  0  0  0  0  0  0  0
    3.1522   -0.5111    2.1919 H   0  0  0  0  0  0  0  0  0  0  0  0
    2.1251    0.4307    3.3068 H   0  0  0  0  0  0  0  0  0  0  0  0
    1.4295   -2.2967    2.0831 H   0  0  0  0  0  0  0  0  0  0  0  0
    1.8276   -1.9678    3.7754 H   0  0  0  0  0  0  0  0  0  0  0  0
    0.3345   -1.3269    3.0700 H   0  0  0  0  0  0  0  0  0  0  0  0
    0.2083   -2.7529   -1.8212 H   0  0  0  0  0  0  0  0  0  0  0  0
   -0.0261   -0.9710   -1.8993 H   0  0  0  0  0  0  0  0  0  0  0  0
   -1.7422    2.6236   -0.0945 H   0  0  0  0  0  0  0  0  0  0  0  0
   -2.9067    2.1928    1.1873 H   0  0  0  0  0  0  0  0  0  0  0  0
   -1.1011    2.4586    2.8969 H   0  0  0  0  0  0  0  0  0  0  0  0
    0.0450    2.8829    1.6178 H   0  0  0  0  0  0  0  0  0  0  0  0
   -1.3175    3.9594    1.9731 H   0  0  0  0  0  0  0  0  0  0  0  0
   -4.4365   -1.1545   -1.0730 H   0  0  0  0  0  0  0  0  0  0  0  0
   -4.1874   -2.4029    0.1775 H   0  0  0  0  0  0  0  0  0  0  0  0
   -6.5343   -1.5929    0.2363 H   0  0  0  0  0  0  0  0  0  0  0  0
   -5.6909   -1.1237    1.7228 H   0  0  0  0  0  0  0  0  0  0  0  0
   -5.9741    0.0724    0.4509 H   0  0  0  0  0  0  0  0  0  0  0  0
  1  2  1  0  0  0  0
  2  3  1  0  0  0  0
  3  4  2  0  0  0  0
  4  5  2  0  0  0  0
  4  6  2  0  0  0  0
  6  7  1  0  0  0  0
  7  8  1  0  0  0  0
  4  9  1  0  0  0  0
  9 10  1  0  0  0  0
 10 11  1  0  0  0  0
 11 12  1  0  0  0  0
 12 13  2  0  0  0  0
 12 14  2  0  0  0  0
 14 15  1  0  0  0  0
 15 16  1  0  0  0  0
 12 17  2  0  0  0  0
 17 18  1  0  0  0  0
 18 19  1  0  0  0  0
  1 20  1  0  0  0  0
  1 21  1  0  0  0  0
  1 22  1  0  0  0  0
  2 23  1  0  0  0  0
  2 24  1  0  0  0  0
  7 25  1  0  0  0  0
  7 26  1  0  0  0  0
  8 27  1  0  0  0  0
  8 28  1  0  0  0  0
  8 29  1  0  0  0  0
 10 30  1  0  0  0  0
 10 31  1  0  0  0  0
 15 32  1  0  0  0  0
 15 33  1  0  0  0  0
 16 34  1  0  0  0  0
 16 35  1  0  0  0  0
 16 36  1  0  0  0  0
 18 37  1  0  0  0  0
 18 38  1  0  0  0  0
 19 39  1  0  0  0  0
 19 40  1  0  0  0  0
 19 41  1  0  0  0  0
M  END
