 xtb: 6.7.1 (edcfbbe)
          04092505213D

 41 40  0     0  0            999 V2000
    5.4035   -1.8307   -1.9508 C   0  0  0  0  0  0  0  0  0  0  0  0
    4.3425   -0.7715   -1.7305 C   0  0  0  0  0  0  0  0  0  0  0  0
    3.3886   -1.2903   -0.7810 O   0  0  0  0  0  0  0  0  0  0  0  0
    2.3843   -0.3335   -0.0103 P   0  0  0  0  0  0  0  0  0  0  0  0
    3.2068    1.2368    0.8372 S   0  0  0  0  0  0  0  0  0  0  0  0
    1.6372   -1.3437    0.9473 O   0  0  0  0  0  0  0  0  0  0  0  0
    2.0550   -1.5543    2.3121 C   0  0  0  0  0  0  0  0  0  0  0  0
    3.3873   -2.2697    2.3796 C   0  0  0  0  0  0  0  0  0  0  0  0
    0.8864    0.0621   -1.4477 S   0  0  0  0  0  0  0  0  0  0  0  0
    0.1634    1.4890   -0.5941 C   0  0  0  0  0  0  0  0  0  0  0  0
   -0.7292    1.0409    0.9226 S   0  0  0  0  0  0  0  0  0  0  0  0
   -2.6099    0.5913    0.0678 P   0  0  0  0  0  0  0  0  0  0  0  0
   -2.7605    0.6585   -1.8907 S   0  0  0  0  0  0  0  0  0  0  0  0
   -3.4537    1.6295    0.9133 O   0  0  0  0  0  0  0  0  0  0  0  0
   -4.8934    1.7270    0.8151 C   0  0  0  0  0  0  0  0  0  0  0  0
   -5.2981    2.7471   -0.2311 C   0  0  0  0  0  0  0  0  0  0  0  0
   -3.1131   -0.7844    0.6955 O   0  0  0  0  0  0  0  0  0  0  0  0
   -2.9004   -2.0574    0.0649 C   0  0  0  0  0  0  0  0  0  0  0  0
   -1.5295   -2.6152    0.3886 C   0  0  0  0  0  0  0  0  0  0  0  0
    5.9254   -2.0387   -1.0212 H   0  0  0  0  0  0  0  0  0  0  0  0
    4.9422   -2.7463   -2.3088 H   0  0  0  0  0  0  0  0  0  0  0  0
    6.1147   -1.4733   -2.6883 H   0  0  0  0  0  0  0  0  0  0  0  0
    3.8103   -0.5400   -2.6572 H   0  0  0  0  0  0  0  0  0  0  0  0
    4.7722    0.1507   -1.3248 H   0  0  0  0  0  0  0  0  0  0  0  0
    2.1067   -0.5823    2.8129 H   0  0  0  0  0  0  0  0  0  0  0  0
    1.2499   -2.1499    2.7437 H   0  0  0  0  0  0  0  0  0  0  0  0
    3.6277   -2.4908    3.4147 H   0  0  0  0  0  0  0  0  0  0  0  0
    3.3457   -3.1936    1.8090 H   0  0  0  0  0  0  0  0  0  0  0  0
    4.1667   -1.6328    1.9628 H   0  0  0  0  0  0  0  0  0  0  0  0
   -0.5197    1.9579   -1.3004 H   0  0  0  0  0  0  0  0  0  0  0  0
    0.9628    2.1670   -0.2955 H   0  0  0  0  0  0  0  0  0  0  0  0
   -5.3062    0.7409    0.5886 H   0  0  0  0  0  0  0  0  0  0  0  0
   -5.2090    2.0354    1.8134 H   0  0  0  0  0  0  0  0  0  0  0  0
   -6.3785    2.8506   -0.2314 H   0  0  0  0  0  0  0  0  0  0  0  0
   -4.8444    3.7087   -0.0079 H   0  0  0  0  0  0  0  0  0  0  0  0
   -4.9718    2.4278   -1.2185 H   0  0  0  0  0  0  0  0  0  0  0  0
   -3.6925   -2.6917    0.4664 H   0  0  0  0  0  0  0  0  0  0  0  0
   -3.0308   -1.9397   -1.0164 H   0  0  0  0  0  0  0  0  0  0  0  0
   -0.7507   -1.9977   -0.0560 H   0  0  0  0  0  0  0  0  0  0  0  0
   -1.3819   -2.6404    1.4652 H   0  0  0  0  0  0  0  0  0  0  0  0
   -1.4465   -3.6208   -0.0106 H   0  0  0  0  0  0  0  0  0  0  0  0
  1  2  1  0  0  0  0
  2  3  1  0  0  0  0
  3  4  2  0  0  0  0
  4  5  2  0  0  0  0
  4  6  2  0  0  0  0
  6  7  1  0  0  0  0
  7  8  1  0  0  0  0
  4  9  1  0  0  0  0
  9 10  1  0  0  0  0
 10 11  1  0  0  0  0
 11 12  1  0  0  0  0
 12 13  2  0  0  0  0
 12 14  2  0  0  0  0
 14 15  1  0  0  0  0
 15 16  1  0  0  0  0
 12 17  2  0  0  0  0
 17 18  1  0  0  0  0
 18 19  1  0  0  0  0
  1 20  1  0  0  0  0
  1 21  1  0  0  0  0
  1 22  1  0  0  0  0
  2 23  1  0  0  0  0
  2 24  1  0  0  0  0
  7 25  1  0  0  0  0
  7 26  1  0  0  0  0
  8 27  1  0  0  0  0
  8 28  1  0  0  0  0
  8 29  1  0  0  0  0
 10 30  1  0  0  0  0
 10 31  1  0  0  0  0
 15 32  1  0  0  0  0
 15 33  1  0  0  0  0
 16 34  1  0  0  0  0
 16 35  1  0  0  0  0
 16 36  1  0  0  0  0
 18 37  1  0  0  0  0
 18 38  1  0  0  0  0
 19 39  1  0  0  0  0
 19 40  1  0  0  0  0
 19 41  1  0  0  0  0
M  END
