 xtb: 6.7.1 (edcfbbe)
          04092505213D

 41 40  0     0  0            999 V2000
    0.7230   -3.0876    0.5701 C   0  0  0  0  0  0  0  0  0  0  0  0
    1.8092   -2.2572    1.2230 C   0  0  0  0  0  0  0  0  0  0  0  0
    1.5987   -0.8510    0.9775 O   0  0  0  0  0  0  0  0  0  0  0  0
    2.3740   -0.0413   -0.1619 P   0  0  0  0  0  0  0  0  0  0  0  0
    3.0128   -1.1166   -1.6627 S   0  0  0  0  0  0  0  0  0  0  0  0
    3.6039    0.6813    0.5344 O   0  0  0  0  0  0  0  0  0  0  0  0
    3.5399    1.8292    1.4111 C   0  0  0  0  0  0  0  0  0  0  0  0
    2.7396    1.5579    2.6677 C   0  0  0  0  0  0  0  0  0  0  0  0
    1.0089    1.5258   -0.5521 S   0  0  0  0  0  0  0  0  0  0  0  0
    0.2066    0.7668   -1.9845 C   0  0  0  0  0  0  0  0  0  0  0  0
   -0.7943   -0.6826   -1.5738 S   0  0  0  0  0  0  0  0  0  0  0  0
   -2.1598    0.3172   -0.3012 P   0  0  0  0  0  0  0  0  0  0  0  0
   -2.6458    2.1415   -0.8027 S   0  0  0  0  0  0  0  0  0  0  0  0
   -1.4156    0.1387    1.1045 O   0  0  0  0  0  0  0  0  0  0  0  0
   -1.5043    1.1245    2.1486 C   0  0  0  0  0  0  0  0  0  0  0  0
   -2.8734    1.1213    2.7978 C   0  0  0  0  0  0  0  0  0  0  0  0
   -3.4380   -0.6172   -0.2418 O   0  0  0  0  0  0  0  0  0  0  0  0
   -3.4518   -1.9578    0.3061 C   0  0  0  0  0  0  0  0  0  0  0  0
   -3.2178   -2.9972   -0.7714 C   0  0  0  0  0  0  0  0  0  0  0  0
    0.7951   -3.0146   -0.5129 H   0  0  0  0  0  0  0  0  0  0  0  0
    0.8380   -4.1253    0.8658 H   0  0  0  0  0  0  0  0  0  0  0  0
   -0.2543   -2.7281    0.8804 H   0  0  0  0  0  0  0  0  0  0  0  0
    2.7959   -2.5453    0.8485 H   0  0  0  0  0  0  0  0  0  0  0  0
    1.7850   -2.3538    2.3100 H   0  0  0  0  0  0  0  0  0  0  0  0
    4.5884    2.0327    1.6346 H   0  0  0  0  0  0  0  0  0  0  0  0
    3.1119    2.6646    0.8506 H   0  0  0  0  0  0  0  0  0  0  0  0
    1.7029    1.3520    2.4090 H   0  0  0  0  0  0  0  0  0  0  0  0
    3.1502    0.7041    3.2005 H   0  0  0  0  0  0  0  0  0  0  0  0
    2.7774    2.4334    3.3082 H   0  0  0  0  0  0  0  0  0  0  0  0
    0.9646    0.4268   -2.6902 H   0  0  0  0  0  0  0  0  0  0  0  0
   -0.4302    1.5372   -2.4189 H   0  0  0  0  0  0  0  0  0  0  0  0
   -0.7216    0.8370    2.8525 H   0  0  0  0  0  0  0  0  0  0  0  0
   -1.2801    2.1070    1.7214 H   0  0  0  0  0  0  0  0  0  0  0  0
   -2.8966    1.8600    3.5927 H   0  0  0  0  0  0  0  0  0  0  0  0
   -3.6303    1.3766    2.0563 H   0  0  0  0  0  0  0  0  0  0  0  0
   -3.0987    0.1411    3.2102 H   0  0  0  0  0  0  0  0  0  0  0  0
   -2.6994   -2.0254    1.0954 H   0  0  0  0  0  0  0  0  0  0  0  0
   -4.4498   -2.0552    0.7372 H   0  0  0  0  0  0  0  0  0  0  0  0
   -3.9441   -2.8746   -1.5700 H   0  0  0  0  0  0  0  0  0  0  0  0
   -2.2189   -2.8991   -1.1919 H   0  0  0  0  0  0  0  0  0  0  0  0
   -3.3247   -3.9868   -0.3384 H   0  0  0  0  0  0  0  0  0  0  0  0
  1  2  1  0  0  0  0
  2  3  1  0  0  0  0
  3  4  1  0  0  0  0
  4  5  2  0  0  0  0
  4  6  2  0  0  0  0
  6  7  1  0  0  0  0
  7  8  1  0  0  0  0
  4  9  1  0  0  0  0
  9 10  1  0  0  0  0
 10 11  1  0  0  0  0
 11 12  1  0  0  0  0
 12 13  2  0  0  0  0
 12 14  1  0  0  0  0
 14 15  1  0  0  0  0
 15 16  1  0  0  0  0
 12 17  2  0  0  0  0
 17 18  1  0  0  0  0
 18 19  1  0  0  0  0
  1 20  1  0  0  0  0
  1 21  1  0  0  0  0
  1 22  1  0  0  0  0
  2 23  1  0  0  0  0
  2 24  1  0  0  0  0
  7 25  1  0  0  0  0
  7 26  1  0  0  0  0
  8 27  1  0  0  0  0
  8 28  1  0  0  0  0
  8 29  1  0  0  0  0
 10 30  1  0  0  0  0
 10 31  1  0  0  0  0
 15 32  1  0  0  0  0
 15 33  1  0  0  0  0
 16 34  1  0  0  0  0
 16 35  1  0  0  0  0
 16 36  1  0  0  0  0
 18 37  1  0  0  0  0
 18 38  1  0  0  0  0
 19 39  1  0  0  0  0
 19 40  1  0  0  0  0
 19 41  1  0  0  0  0
M  END
