 xtb: 6.7.1 (edcfbbe)
          04092505203D

 41 40  0     0  0            999 V2000
    2.6285    2.3828    1.1222 C   0  0  0  0  0  0  0  0  0  0  0  0
    1.2149    2.0086    1.5096 C   0  0  0  0  0  0  0  0  0  0  0  0
    1.0670    0.6129    1.8674 O   0  0  0  0  0  0  0  0  0  0  0  0
    1.5960   -0.6342    1.0647 P   0  0  0  0  0  0  0  0  0  0  0  0
    0.7812   -2.3179    1.6500 S   0  0  0  0  0  0  0  0  0  0  0  0
    3.1581   -0.5637    1.3842 O   0  0  0  0  0  0  0  0  0  0  0  0
    4.0352   -1.6925    1.2618 C   0  0  0  0  0  0  0  0  0  0  0  0
    4.1871   -2.1616   -0.1716 C   0  0  0  0  0  0  0  0  0  0  0  0
    1.4829   -0.1698   -1.0165 S   0  0  0  0  0  0  0  0  0  0  0  0
    0.4142   -1.5113   -1.5849 C   0  0  0  0  0  0  0  0  0  0  0  0
   -1.1586   -0.9693   -2.3322 S   0  0  0  0  0  0  0  0  0  0  0  0
   -1.9363    0.3139   -0.8424 P   0  0  0  0  0  0  0  0  0  0  0  0
   -3.8719    0.5720   -0.9627 S   0  0  0  0  0  0  0  0  0  0  0  0
   -1.0401    1.6305   -0.9250 O   0  0  0  0  0  0  0  0  0  0  0  0
   -1.0627    2.4736   -2.0957 C   0  0  0  0  0  0  0  0  0  0  0  0
   -2.0143    3.6376   -1.9026 C   0  0  0  0  0  0  0  0  0  0  0  0
   -1.3742   -0.2915    0.5163 O   0  0  0  0  0  0  0  0  0  0  0  0
   -2.2395   -0.4902    1.6530 C   0  0  0  0  0  0  0  0  0  0  0  0
   -2.3603    0.7810    2.4648 C   0  0  0  0  0  0  0  0  0  0  0  0
    2.6738    3.4538    0.9492 H   0  0  0  0  0  0  0  0  0  0  0  0
    3.3208    2.1164    1.9167 H   0  0  0  0  0  0  0  0  0  0  0  0
    2.9217    1.8643    0.2105 H   0  0  0  0  0  0  0  0  0  0  0  0
    0.5140    2.2197    0.6986 H   0  0  0  0  0  0  0  0  0  0  0  0
    0.8981    2.5322    2.4136 H   0  0  0  0  0  0  0  0  0  0  0  0
    4.9813   -1.3311    1.6673 H   0  0  0  0  0  0  0  0  0  0  0  0
    3.6486   -2.5013    1.8902 H   0  0  0  0  0  0  0  0  0  0  0  0
    4.9649   -2.9170   -0.2184 H   0  0  0  0  0  0  0  0  0  0  0  0
    3.2532   -2.5995   -0.5210 H   0  0  0  0  0  0  0  0  0  0  0  0
    4.4533   -1.3291   -0.8177 H   0  0  0  0  0  0  0  0  0  0  0  0
    0.2069   -2.1743   -0.7401 H   0  0  0  0  0  0  0  0  0  0  0  0
    0.9225   -2.0405   -2.3874 H   0  0  0  0  0  0  0  0  0  0  0  0
   -0.0312    2.8117   -2.2152 H   0  0  0  0  0  0  0  0  0  0  0  0
   -1.3498    1.8720   -2.9648 H   0  0  0  0  0  0  0  0  0  0  0  0
   -1.9790    4.2758   -2.7794 H   0  0  0  0  0  0  0  0  0  0  0  0
   -3.0308    3.2732   -1.7699 H   0  0  0  0  0  0  0  0  0  0  0  0
   -1.7313    4.2136   -1.0261 H   0  0  0  0  0  0  0  0  0  0  0  0
   -3.2208   -0.8167    1.2949 H   0  0  0  0  0  0  0  0  0  0  0  0
   -1.7670   -1.2946    2.2198 H   0  0  0  0  0  0  0  0  0  0  0  0
   -3.0082    0.5996    3.3164 H   0  0  0  0  0  0  0  0  0  0  0  0
   -1.3806    1.0939    2.8150 H   0  0  0  0  0  0  0  0  0  0  0  0
   -2.7912    1.5684    1.8480 H   0  0  0  0  0  0  0  0  0  0  0  0
  1  2  1  0  0  0  0
  2  3  1  0  0  0  0
  3  4  2  0  0  0  0
  4  5  2  0  0  0  0
  4  6  1  0  0  0  0
  6  7  1  0  0  0  0
  7  8  1  0  0  0  0
  4  9  1  0  0  0  0
  9 10  1  0  0  0  0
 10 11  1  0  0  0  0
 11 12  1  0  0  0  0
 12 13  2  0  0  0  0
 12 14  1  0  0  0  0
 14 15  1  0  0  0  0
 15 16  1  0  0  0  0
 12 17  1  0  0  0  0
 17 18  1  0  0  0  0
 18 19  1  0  0  0  0
  1 20  1  0  0  0  0
  1 21  1  0  0  0  0
  1 22  1  0  0  0  0
  2 23  1  0  0  0  0
  2 24  1  0  0  0  0
  7 25  1  0  0  0  0
  7 26  1  0  0  0  0
  8 27  1  0  0  0  0
  8 28  1  0  0  0  0
  8 29  1  0  0  0  0
 10 30  1  0  0  0  0
 10 31  1  0  0  0  0
 15 32  1  0  0  0  0
 15 33  1  0  0  0  0
 16 34  1  0  0  0  0
 16 35  1  0  0  0  0
 16 36  1  0  0  0  0
 18 37  1  0  0  0  0
 18 38  1  0  0  0  0
 19 39  1  0  0  0  0
 19 40  1  0  0  0  0
 19 41  1  0  0  0  0
M  END
