 xtb: 6.7.1 (edcfbbe)
          04092507313D

 38 37  0     0  0            999 V2000
    4.5491    0.9638   -0.6055 C   0  0  0  0  0  0  0  0  0  0  0  0
    4.2285    0.2849   -1.9268 C   0  0  0  0  0  0  0  0  0  0  0  0
    2.8582   -0.1580   -1.9599 O   0  0  0  0  0  0  0  0  0  0  0  0
    2.5716   -1.3584   -1.4965 C   0  0  0  0  0  0  0  0  0  0  0  0
    3.3823   -2.1479   -1.0696 O   0  0  0  0  0  0  0  0  0  0  0  0
    1.0852   -1.6550   -1.6136 C   0  0  0  0  0  0  0  0  0  0  0  0
    0.2569   -0.5970   -0.8878 C   0  0  0  0  0  0  0  0  0  0  0  0
    0.4971    0.3988   -1.2734 H   0  0  0  0  0  0  0  0  0  0  0  0
    0.5074   -0.6048    0.6064 C   0  0  0  0  0  0  0  0  0  0  0  0
   -0.3935   -0.7075    1.4172 O   0  0  0  0  0  0  0  0  0  0  0  0
    1.7709   -0.4847    0.8979 O   0  0  0  0  0  0  0  0  0  0  0  0
    2.1492   -0.3952    2.2906 C   0  0  0  0  0  0  0  0  0  0  0  0
    2.1745    1.0570    2.7369 C   0  0  0  0  0  0  0  0  0  0  0  0
   -1.5257   -0.9076   -1.1628 S   0  0  0  0  0  0  0  0  0  0  0  0
   -2.3502    0.4727    0.2212 P   0  0  0  0  0  0  0  0  0  0  0  0
   -1.2972    2.0693    0.6842 S   0  0  0  0  0  0  0  0  0  0  0  0
   -3.6925    0.8528   -0.5665 O   0  0  0  0  0  0  0  0  0  0  0  0
   -3.6489    1.6071   -1.7807 C   0  0  0  0  0  0  0  0  0  0  0  0
   -3.1236   -0.2952    1.3712 O   0  0  0  0  0  0  0  0  0  0  0  0
   -2.7933   -0.2798    2.7611 C   0  0  0  0  0  0  0  0  0  0  0  0
    4.4604    0.2489    0.2083 H   0  0  0  0  0  0  0  0  0  0  0  0
    5.5641    1.3459   -0.6344 H   0  0  0  0  0  0  0  0  0  0  0  0
    3.8602    1.7863   -0.4319 H   0  0  0  0  0  0  0  0  0  0  0  0
    4.8779   -0.5806   -2.0854 H   0  0  0  0  0  0  0  0  0  0  0  0
    4.3103    0.9811   -2.7618 H   0  0  0  0  0  0  0  0  0  0  0  0
    0.8901   -2.6462   -1.2045 H   0  0  0  0  0  0  0  0  0  0  0  0
    0.8120   -1.6441   -2.6697 H   0  0  0  0  0  0  0  0  0  0  0  0
    1.4365   -0.9753    2.8819 H   0  0  0  0  0  0  0  0  0  0  0  0
    3.1386   -0.8511    2.3359 H   0  0  0  0  0  0  0  0  0  0  0  0
    2.9035    1.6186    2.1601 H   0  0  0  0  0  0  0  0  0  0  0  0
    1.1951    1.5109    2.5947 H   0  0  0  0  0  0  0  0  0  0  0  0
    2.4364    1.1036    3.7885 H   0  0  0  0  0  0  0  0  0  0  0  0
   -3.0393    2.5028   -1.6443 H   0  0  0  0  0  0  0  0  0  0  0  0
   -4.6798    1.8802   -1.9911 H   0  0  0  0  0  0  0  0  0  0  0  0
   -3.2420    0.9984   -2.5887 H   0  0  0  0  0  0  0  0  0  0  0  0
   -2.1820    0.5921    2.9997 H   0  0  0  0  0  0  0  0  0  0  0  0
   -2.2488   -1.1887    3.0097 H   0  0  0  0  0  0  0  0  0  0  0  0
   -3.7410   -0.2354    3.2935 H   0  0  0  0  0  0  0  0  0  0  0  0
  1  2  1  0  0  0  0
  2  3  1  0  0  0  0
  3  4  1  0  0  0  0
  4  5  2  0  0  0  0
  4  6  1  0  0  0  0
  6  7  1  0  0  0  0
  7  8  1  0  0  0  0
  7  9  1  0  0  0  0
  9 10  2  0  0  0  0
  9 11  4  0  0  0  0
 11 12  1  0  0  0  0
 12 13  1  0  0  0  0
  7 14  1  0  0  0  0
 14 15  1  0  0  0  0
 15 16  2  0  0  0  0
 15 17  1  0  0  0  0
 17 18  1  0  0  0  0
 15 19  2  0  0  0  0
 19 20  1  0  0  0  0
  1 21  1  0  0  0  0
  1 22  1  0  0  0  0
  1 23  1  0  0  0  0
  2 24  1  0  0  0  0
  2 25  1  0  0  0  0
  6 26  1  0  0  0  0
  6 27  1  0  0  0  0
 12 28  1  0  0  0  0
 12 29  1  0  0  0  0
 13 30  1  0  0  0  0
 13 31  1  0  0  0  0
 13 32  1  0  0  0  0
 18 33  1  0  0  0  0
 18 34  1  0  0  0  0
 18 35  1  0  0  0  0
 20 36  1  0  0  0  0
 20 37  1  0  0  0  0
 20 38  1  0  0  0  0
M  END
