 xtb: 6.7.1 (edcfbbe)
          04092505213D

 41 40  0     0  0            999 V2000
    4.6526    0.7324   -1.2009 C   0  0  0  0  0  0  0  0  0  0  0  0
    4.4727    0.2476    0.2232 C   0  0  0  0  0  0  0  0  0  0  0  0
    3.2678   -0.5128    0.3824 O   0  0  0  0  0  0  0  0  0  0  0  0
    1.8252    0.1793    0.3372 P   0  0  0  0  0  0  0  0  0  0  0  0
    1.8070    1.9441    1.1947 S   0  0  0  0  0  0  0  0  0  0  0  0
    0.9297   -0.9715    0.9580 O   0  0  0  0  0  0  0  0  0  0  0  0
    1.3965   -1.8562    2.0029 C   0  0  0  0  0  0  0  0  0  0  0  0
    1.7819   -1.1133    3.2650 C   0  0  0  0  0  0  0  0  0  0  0  0
    1.2903    0.1371   -1.7258 S   0  0  0  0  0  0  0  0  0  0  0  0
    0.2223   -1.3212   -1.9083 C   0  0  0  0  0  0  0  0  0  0  0  0
   -1.5119   -0.9164   -2.3057 S   0  0  0  0  0  0  0  0  0  0  0  0
   -2.2083   -0.2477   -0.4395 P   0  0  0  0  0  0  0  0  0  0  0  0
   -4.0858    0.3008   -0.3632 S   0  0  0  0  0  0  0  0  0  0  0  0
   -1.1585    0.8605    0.0555 O   0  0  0  0  0  0  0  0  0  0  0  0
   -1.4498    2.2582   -0.1211 C   0  0  0  0  0  0  0  0  0  0  0  0
   -1.3898    2.6746   -1.5767 C   0  0  0  0  0  0  0  0  0  0  0  0
   -1.8220   -1.5066    0.4494 O   0  0  0  0  0  0  0  0  0  0  0  0
   -2.4990   -1.7799    1.6942 C   0  0  0  0  0  0  0  0  0  0  0  0
   -2.2761   -0.6874    2.7185 C   0  0  0  0  0  0  0  0  0  0  0  0
    5.6115    1.2320   -1.2923 H   0  0  0  0  0  0  0  0  0  0  0  0
    4.6115   -0.1023   -1.8955 H   0  0  0  0  0  0  0  0  0  0  0  0
    3.8604    1.4370   -1.4547 H   0  0  0  0  0  0  0  0  0  0  0  0
    4.4413    1.0962    0.9150 H   0  0  0  0  0  0  0  0  0  0  0  0
    5.2646   -0.4426    0.5177 H   0  0  0  0  0  0  0  0  0  0  0  0
    0.5449   -2.5176    2.1719 H   0  0  0  0  0  0  0  0  0  0  0  0
    2.2427   -2.4290    1.6184 H   0  0  0  0  0  0  0  0  0  0  0  0
    0.9543   -0.5063    3.6252 H   0  0  0  0  0  0  0  0  0  0  0  0
    2.0592   -1.8299    4.0320 H   0  0  0  0  0  0  0  0  0  0  0  0
    2.6269   -0.4543    3.0711 H   0  0  0  0  0  0  0  0  0  0  0  0
    0.2539   -1.9194   -1.0038 H   0  0  0  0  0  0  0  0  0  0  0  0
    0.5838   -1.8703   -2.7736 H   0  0  0  0  0  0  0  0  0  0  0  0
   -2.4443    2.4547    0.2917 H   0  0  0  0  0  0  0  0  0  0  0  0
   -0.6918    2.7681    0.4766 H   0  0  0  0  0  0  0  0  0  0  0  0
   -1.5786    3.7408   -1.6483 H   0  0  0  0  0  0  0  0  0  0  0  0
   -0.4116    2.4557   -1.9989 H   0  0  0  0  0  0  0  0  0  0  0  0
   -2.1507    2.1406   -2.1469 H   0  0  0  0  0  0  0  0  0  0  0  0
   -3.5668   -1.8967    1.4851 H   0  0  0  0  0  0  0  0  0  0  0  0
   -2.0790   -2.7345    2.0145 H   0  0  0  0  0  0  0  0  0  0  0  0
   -2.8022    0.2174    2.4156 H   0  0  0  0  0  0  0  0  0  0  0  0
   -2.6548   -1.0094    3.6833 H   0  0  0  0  0  0  0  0  0  0  0  0
   -1.2168   -0.4576    2.7991 H   0  0  0  0  0  0  0  0  0  0  0  0
  1  2  1  0  0  0  0
  2  3  1  0  0  0  0
  3  4  1  0  0  0  0
  4  5  2  0  0  0  0
  4  6  1  0  0  0  0
  6  7  1  0  0  0  0
  7  8  1  0  0  0  0
  4  9  1  0  0  0  0
  9 10  1  0  0  0  0
 10 11  1  0  0  0  0
 11 12  1  0  0  0  0
 12 13  2  0  0  0  0
 12 14  1  0  0  0  0
 14 15  1  0  0  0  0
 15 16  1  0  0  0  0
 12 17  2  0  0  0  0
 17 18  1  0  0  0  0
 18 19  1  0  0  0  0
  1 20  1  0  0  0  0
  1 21  1  0  0  0  0
  1 22  1  0  0  0  0
  2 23  1  0  0  0  0
  2 24  1  0  0  0  0
  7 25  1  0  0  0  0
  7 26  1  0  0  0  0
  8 27  1  0  0  0  0
  8 28  1  0  0  0  0
  8 29  1  0  0  0  0
 10 30  1  0  0  0  0
 10 31  1  0  0  0  0
 15 32  1  0  0  0  0
 15 33  1  0  0  0  0
 16 34  1  0  0  0  0
 16 35  1  0  0  0  0
 16 36  1  0  0  0  0
 18 37  1  0  0  0  0
 18 38  1  0  0  0  0
 19 39  1  0  0  0  0
 19 40  1  0  0  0  0
 19 41  1  0  0  0  0
M  END
