 xtb: 6.7.1 (edcfbbe)
          04092507313D

 38 37  0     0  0            999 V2000
    4.8328    0.2914   -1.9087 C   0  0  0  0  0  0  0  0  0  0  0  0
    4.5313   -0.9034   -1.0210 C   0  0  0  0  0  0  0  0  0  0  0  0
    3.1214   -1.1922   -1.0966 O   0  0  0  0  0  0  0  0  0  0  0  0
    2.4253   -1.3201    0.0128 C   0  0  0  0  0  0  0  0  0  0  0  0
    2.8866   -1.2902    1.1312 O   0  0  0  0  0  0  0  0  0  0  0  0
    0.9494   -1.5158   -0.2920 C   0  0  0  0  0  0  0  0  0  0  0  0
    0.4030   -0.2871   -1.0263 C   0  0  0  0  0  0  0  0  0  0  0  0
    0.9415   -0.1497   -1.9673 H   0  0  0  0  0  0  0  0  0  0  0  0
    0.5427    0.9558   -0.1709 C   0  0  0  0  0  0  0  0  0  0  0  0
   -0.4144    1.5505    0.2858 O   0  0  0  0  0  0  0  0  0  0  0  0
    1.7893    1.2868    0.0174 O   0  0  0  0  0  0  0  0  0  0  0  0
    2.0879    2.3727    0.9263 C   0  0  0  0  0  0  0  0  0  0  0  0
    3.4585    2.1264    1.5260 C   0  0  0  0  0  0  0  0  0  0  0  0
   -1.3461   -0.4809   -1.4807 S   0  0  0  0  0  0  0  0  0  0  0  0
   -2.3858   -0.0347    0.3280 P   0  0  0  0  0  0  0  0  0  0  0  0
   -1.6197   -0.5069    2.0718 S   0  0  0  0  0  0  0  0  0  0  0  0
   -3.0462    1.3996    0.2488 O   0  0  0  0  0  0  0  0  0  0  0  0
   -3.8407    1.8236   -0.8756 C   0  0  0  0  0  0  0  0  0  0  0  0
   -3.7076   -0.9097    0.0292 O   0  0  0  0  0  0  0  0  0  0  0  0
   -3.6938   -2.3369    0.0888 C   0  0  0  0  0  0  0  0  0  0  0  0
    4.2508    1.1507   -1.5865 H   0  0  0  0  0  0  0  0  0  0  0  0
    5.8895    0.5288   -1.8445 H   0  0  0  0  0  0  0  0  0  0  0  0
    4.5792    0.0636   -2.9396 H   0  0  0  0  0  0  0  0  0  0  0  0
    4.7908   -0.7111    0.0235 H   0  0  0  0  0  0  0  0  0  0  0  0
    5.0554   -1.7967   -1.3688 H   0  0  0  0  0  0  0  0  0  0  0  0
    0.4184   -1.6734    0.6495 H   0  0  0  0  0  0  0  0  0  0  0  0
    0.8292   -2.3881   -0.9350 H   0  0  0  0  0  0  0  0  0  0  0  0
    2.0557    3.3017    0.3506 H   0  0  0  0  0  0  0  0  0  0  0  0
    1.3073    2.4000    1.6923 H   0  0  0  0  0  0  0  0  0  0  0  0
    4.2235    2.1679    0.7567 H   0  0  0  0  0  0  0  0  0  0  0  0
    3.6610    2.8861    2.2733 H   0  0  0  0  0  0  0  0  0  0  0  0
    3.4837    1.1465    1.9971 H   0  0  0  0  0  0  0  0  0  0  0  0
   -3.2763    1.7028   -1.8005 H   0  0  0  0  0  0  0  0  0  0  0  0
   -4.0528    2.8732   -0.6891 H   0  0  0  0  0  0  0  0  0  0  0  0
   -4.7594    1.2414   -0.9196 H   0  0  0  0  0  0  0  0  0  0  0  0
   -3.1968   -2.7397   -0.7935 H   0  0  0  0  0  0  0  0  0  0  0  0
   -4.7371   -2.6410    0.1135 H   0  0  0  0  0  0  0  0  0  0  0  0
   -3.1800   -2.6690    0.9929 H   0  0  0  0  0  0  0  0  0  0  0  0
  1  2  1  0  0  0  0
  2  3  1  0  0  0  0
  3  4  1  0  0  0  0
  4  5  2  0  0  0  0
  4  6  1  0  0  0  0
  6  7  1  0  0  0  0
  7  8  1  0  0  0  0
  7  9  1  0  0  0  0
  9 10  2  0  0  0  0
  9 11  4  0  0  0  0
 11 12  1  0  0  0  0
 12 13  1  0  0  0  0
  7 14  1  0  0  0  0
 14 15  1  0  0  0  0
 15 16  2  0  0  0  0
 15 17  2  0  0  0  0
 17 18  1  0  0  0  0
 15 19  1  0  0  0  0
 19 20  1  0  0  0  0
  1 21  1  0  0  0  0
  1 22  1  0  0  0  0
  1 23  1  0  0  0  0
  2 24  1  0  0  0  0
  2 25  1  0  0  0  0
  6 26  1  0  0  0  0
  6 27  1  0  0  0  0
 12 28  1  0  0  0  0
 12 29  1  0  0  0  0
 13 30  1  0  0  0  0
 13 31  1  0  0  0  0
 13 32  1  0  0  0  0
 18 33  1  0  0  0  0
 18 34  1  0  0  0  0
 18 35  1  0  0  0  0
 20 36  1  0  0  0  0
 20 37  1  0  0  0  0
 20 38  1  0  0  0  0
M  END
