 xtb: 6.7.1 (edcfbbe)
          04092505213D

 41 40  0     0  0            999 V2000
    5.4295   -0.1898   -1.1650 C   0  0  0  0  0  0  0  0  0  0  0  0
    4.0323    0.2957   -1.4917 C   0  0  0  0  0  0  0  0  0  0  0  0
    3.3223    0.6526   -0.2781 O   0  0  0  0  0  0  0  0  0  0  0  0
    2.3166   -0.3090    0.4618 P   0  0  0  0  0  0  0  0  0  0  0  0
    1.7887    0.4783    2.1743 S   0  0  0  0  0  0  0  0  0  0  0  0
    3.0973   -1.6913    0.4910 O   0  0  0  0  0  0  0  0  0  0  0  0
    2.4866   -2.9713    0.7400 C   0  0  0  0  0  0  0  0  0  0  0  0
    2.0243   -3.1202    2.1751 C   0  0  0  0  0  0  0  0  0  0  0  0
    0.7710   -0.7189   -0.9649 S   0  0  0  0  0  0  0  0  0  0  0  0
    0.2138    0.9846   -1.2232 C   0  0  0  0  0  0  0  0  0  0  0  0
   -0.7866    1.6615    0.1335 S   0  0  0  0  0  0  0  0  0  0  0  0
   -2.5781    0.5501   -0.1992 P   0  0  0  0  0  0  0  0  0  0  0  0
   -2.7312   -0.3182   -1.9546 S   0  0  0  0  0  0  0  0  0  0  0  0
   -3.7551    1.5480    0.1448 O   0  0  0  0  0  0  0  0  0  0  0  0
   -4.3926    2.3444   -0.8685 C   0  0  0  0  0  0  0  0  0  0  0  0
   -3.4942    3.4627   -1.3591 C   0  0  0  0  0  0  0  0  0  0  0  0
   -2.7635   -0.3339    1.1019 O   0  0  0  0  0  0  0  0  0  0  0  0
   -1.8063   -1.2712    1.6187 C   0  0  0  0  0  0  0  0  0  0  0  0
   -1.8044   -2.5704    0.8363 C   0  0  0  0  0  0  0  0  0  0  0  0
    5.3832   -1.0966   -0.5682 H   0  0  0  0  0  0  0  0  0  0  0  0
    5.9604   -0.3937   -2.0897 H   0  0  0  0  0  0  0  0  0  0  0  0
    5.9652    0.5705   -0.6032 H   0  0  0  0  0  0  0  0  0  0  0  0
    3.4628   -0.4674   -2.0287 H   0  0  0  0  0  0  0  0  0  0  0  0
    4.0612    1.2177   -2.0756 H   0  0  0  0  0  0  0  0  0  0  0  0
    1.6538   -3.1008    0.0428 H   0  0  0  0  0  0  0  0  0  0  0  0
    3.2779   -3.6850    0.5034 H   0  0  0  0  0  0  0  0  0  0  0  0
    1.2385   -2.4011    2.3979 H   0  0  0  0  0  0  0  0  0  0  0  0
    1.6433   -4.1250    2.3274 H   0  0  0  0  0  0  0  0  0  0  0  0
    2.8520   -2.9430    2.8569 H   0  0  0  0  0  0  0  0  0  0  0  0
   -0.3845    0.9560   -2.1340 H   0  0  0  0  0  0  0  0  0  0  0  0
    1.0716    1.6448   -1.3250 H   0  0  0  0  0  0  0  0  0  0  0  0
   -4.6820    1.6901   -1.6976 H   0  0  0  0  0  0  0  0  0  0  0  0
   -5.2845    2.7322   -0.3746 H   0  0  0  0  0  0  0  0  0  0  0  0
   -4.0568    4.1108   -2.0233 H   0  0  0  0  0  0  0  0  0  0  0  0
   -3.1211    4.0422   -0.5183 H   0  0  0  0  0  0  0  0  0  0  0  0
   -2.6473    3.0477   -1.9038 H   0  0  0  0  0  0  0  0  0  0  0  0
   -0.8136   -0.8052    1.6288 H   0  0  0  0  0  0  0  0  0  0  0  0
   -2.1278   -1.4301    2.6500 H   0  0  0  0  0  0  0  0  0  0  0  0
   -1.4618   -2.4036   -0.1834 H   0  0  0  0  0  0  0  0  0  0  0  0
   -1.1428   -3.2802    1.3225 H   0  0  0  0  0  0  0  0  0  0  0  0
   -2.8101   -2.9807    0.8013 H   0  0  0  0  0  0  0  0  0  0  0  0
  1  2  1  0  0  0  0
  2  3  1  0  0  0  0
  3  4  2  0  0  0  0
  4  5  2  0  0  0  0
  4  6  2  0  0  0  0
  6  7  1  0  0  0  0
  7  8  1  0  0  0  0
  4  9  1  0  0  0  0
  9 10  1  0  0  0  0
 10 11  1  0  0  0  0
 11 12  1  0  0  0  0
 12 13  2  0  0  0  0
 12 14  2  0  0  0  0
 14 15  1  0  0  0  0
 15 16  1  0  0  0  0
 12 17  2  0  0  0  0
 17 18  1  0  0  0  0
 18 19  1  0  0  0  0
  1 20  1  0  0  0  0
  1 21  1  0  0  0  0
  1 22  1  0  0  0  0
  2 23  1  0  0  0  0
  2 24  1  0  0  0  0
  7 25  1  0  0  0  0
  7 26  1  0  0  0  0
  8 27  1  0  0  0  0
  8 28  1  0  0  0  0
  8 29  1  0  0  0  0
 10 30  1  0  0  0  0
 10 31  1  0  0  0  0
 15 32  1  0  0  0  0
 15 33  1  0  0  0  0
 16 34  1  0  0  0  0
 16 35  1  0  0  0  0
 16 36  1  0  0  0  0
 18 37  1  0  0  0  0
 18 38  1  0  0  0  0
 19 39  1  0  0  0  0
 19 40  1  0  0  0  0
 19 41  1  0  0  0  0
M  END
