 xtb: 6.7.1 (edcfbbe)
          04092507313D

 38 37  0     0  0            999 V2000
    3.6177   -3.9693   -0.6723 C   0  0  0  0  0  0  0  0  0  0  0  0
    4.2675   -2.6665   -1.1102 C   0  0  0  0  0  0  0  0  0  0  0  0
    3.3323   -1.8529   -1.8473 O   0  0  0  0  0  0  0  0  0  0  0  0
    2.5282   -1.0590   -1.1773 C   0  0  0  0  0  0  0  0  0  0  0  0
    2.5315   -0.9265    0.0297 O   0  0  0  0  0  0  0  0  0  0  0  0
    1.5966   -0.2926   -2.0929 C   0  0  0  0  0  0  0  0  0  0  0  0
    0.4890    0.3442   -1.2643 C   0  0  0  0  0  0  0  0  0  0  0  0
   -0.0989    1.0384   -1.8733 H   0  0  0  0  0  0  0  0  0  0  0  0
    1.1021    1.1355   -0.1184 C   0  0  0  0  0  0  0  0  0  0  0  0
    2.0088    1.9166   -0.2942 O   0  0  0  0  0  0  0  0  0  0  0  0
    0.5021    0.9159    1.0332 O   0  0  0  0  0  0  0  0  0  0  0  0
    0.9905    1.6141    2.1969 C   0  0  0  0  0  0  0  0  0  0  0  0
    0.3269    2.9721    2.3448 C   0  0  0  0  0  0  0  0  0  0  0  0
   -0.6490   -0.9485   -0.6482 S   0  0  0  0  0  0  0  0  0  0  0  0
   -2.0704    0.3318    0.2227 P   0  0  0  0  0  0  0  0  0  0  0  0
   -2.1854    2.2054   -0.3246 S   0  0  0  0  0  0  0  0  0  0  0  0
   -3.3413   -0.5538   -0.2243 O   0  0  0  0  0  0  0  0  0  0  0  0
   -4.6714   -0.0762    0.0150 C   0  0  0  0  0  0  0  0  0  0  0  0
   -2.0321    0.1992    1.8148 O   0  0  0  0  0  0  0  0  0  0  0  0
   -1.8618   -1.0815    2.4450 C   0  0  0  0  0  0  0  0  0  0  0  0
    2.7978   -3.7651    0.0126 H   0  0  0  0  0  0  0  0  0  0  0  0
    3.2317   -4.5030   -1.5361 H   0  0  0  0  0  0  0  0  0  0  0  0
    4.3544   -4.5862   -0.1685 H   0  0  0  0  0  0  0  0  0  0  0  0
    5.0845   -2.8424   -1.8097 H   0  0  0  0  0  0  0  0  0  0  0  0
    4.6202   -2.0969   -0.2458 H   0  0  0  0  0  0  0  0  0  0  0  0
    1.1935   -0.9597   -2.8535 H   0  0  0  0  0  0  0  0  0  0  0  0
    2.1788    0.4928   -2.5804 H   0  0  0  0  0  0  0  0  0  0  0  0
    0.7437    0.9577    3.0316 H   0  0  0  0  0  0  0  0  0  0  0  0
    2.0745    1.7129    2.0939 H   0  0  0  0  0  0  0  0  0  0  0  0
    0.5785    3.6079    1.4987 H   0  0  0  0  0  0  0  0  0  0  0  0
   -0.7539    2.8580    2.3826 H   0  0  0  0  0  0  0  0  0  0  0  0
    0.6726    3.4419    3.2593 H   0  0  0  0  0  0  0  0  0  0  0  0
   -5.3280   -0.7810   -0.4883 H   0  0  0  0  0  0  0  0  0  0  0  0
   -4.7900    0.9241   -0.4048 H   0  0  0  0  0  0  0  0  0  0  0  0
   -4.8814   -0.0483    1.0846 H   0  0  0  0  0  0  0  0  0  0  0  0
   -2.4914   -1.8317    1.9659 H   0  0  0  0  0  0  0  0  0  0  0  0
   -2.1542   -0.9356    3.4818 H   0  0  0  0  0  0  0  0  0  0  0  0
   -0.8168   -1.3835    2.3774 H   0  0  0  0  0  0  0  0  0  0  0  0
  1  2  1  0  0  0  0
  2  3  1  0  0  0  0
  3  4  4  0  0  0  0
  4  5  2  0  0  0  0
  4  6  1  0  0  0  0
  6  7  1  0  0  0  0
  7  8  1  0  0  0  0
  7  9  1  0  0  0  0
  9 10  2  0  0  0  0
  9 11  1  0  0  0  0
 11 12  1  0  0  0  0
 12 13  1  0  0  0  0
  7 14  1  0  0  0  0
 14 15  1  0  0  0  0
 15 16  2  0  0  0  0
 15 17  1  0  0  0  0
 17 18  1  0  0  0  0
 15 19  1  0  0  0  0
 19 20  1  0  0  0  0
  1 21  1  0  0  0  0
  1 22  1  0  0  0  0
  1 23  1  0  0  0  0
  2 24  1  0  0  0  0
  2 25  1  0  0  0  0
  6 26  1  0  0  0  0
  6 27  1  0  0  0  0
 12 28  1  0  0  0  0
 12 29  1  0  0  0  0
 13 30  1  0  0  0  0
 13 31  1  0  0  0  0
 13 32  1  0  0  0  0
 18 33  1  0  0  0  0
 18 34  1  0  0  0  0
 18 35  1  0  0  0  0
 20 36  1  0  0  0  0
 20 37  1  0  0  0  0
 20 38  1  0  0  0  0
M  END
