 xtb: 6.7.1 (edcfbbe)
          04092505213D

 41 40  0     0  0            999 V2000
    1.4036    2.2215    1.8533 C   0  0  0  0  0  0  0  0  0  0  0  0
    2.6739    2.1294    1.0322 C   0  0  0  0  0  0  0  0  0  0  0  0
    2.6305    1.0438    0.0879 O   0  0  0  0  0  0  0  0  0  0  0  0
    2.6871   -0.4695    0.5634 P   0  0  0  0  0  0  0  0  0  0  0  0
    3.7360   -0.8462    2.1720 S   0  0  0  0  0  0  0  0  0  0  0  0
    3.2642   -1.0551   -0.8005 O   0  0  0  0  0  0  0  0  0  0  0  0
    3.9344   -2.3260   -0.8456 C   0  0  0  0  0  0  0  0  0  0  0  0
    2.9832   -3.4857   -0.6234 C   0  0  0  0  0  0  0  0  0  0  0  0
    0.6567   -1.1085    0.5803 S   0  0  0  0  0  0  0  0  0  0  0  0
    0.2030   -0.4780   -1.0681 C   0  0  0  0  0  0  0  0  0  0  0  0
   -0.6953    1.0863   -1.0133 S   0  0  0  0  0  0  0  0  0  0  0  0
   -2.6872    0.3259   -0.8316 P   0  0  0  0  0  0  0  0  0  0  0  0
   -2.8921   -1.5396   -1.3979 S   0  0  0  0  0  0  0  0  0  0  0  0
   -3.6116    1.2444   -1.7131 O   0  0  0  0  0  0  0  0  0  0  0  0
   -4.0231    2.5975   -1.3981 C   0  0  0  0  0  0  0  0  0  0  0  0
   -2.8564    3.5602   -1.3393 C   0  0  0  0  0  0  0  0  0  0  0  0
   -3.1622    0.7295    0.6356 O   0  0  0  0  0  0  0  0  0  0  0  0
   -2.4937    0.3696    1.8550 C   0  0  0  0  0  0  0  0  0  0  0  0
   -2.6542   -1.0984    2.1930 C   0  0  0  0  0  0  0  0  0  0  0  0
    1.2915    1.3226    2.4600 H   0  0  0  0  0  0  0  0  0  0  0  0
    1.4624    3.0839    2.5093 H   0  0  0  0  0  0  0  0  0  0  0  0
    0.5425    2.3247    1.1976 H   0  0  0  0  0  0  0  0  0  0  0  0
    3.5423    1.9874    1.6834 H   0  0  0  0  0  0  0  0  0  0  0  0
    2.8155    3.0126    0.4082 H   0  0  0  0  0  0  0  0  0  0  0  0
    4.3784   -2.3539   -1.8418 H   0  0  0  0  0  0  0  0  0  0  0  0
    4.7241   -2.3291   -0.0874 H   0  0  0  0  0  0  0  0  0  0  0  0
    3.5214   -4.4192   -0.7533 H   0  0  0  0  0  0  0  0  0  0  0  0
    2.5809   -3.4498    0.3888 H   0  0  0  0  0  0  0  0  0  0  0  0
    2.1586   -3.4475   -1.3315 H   0  0  0  0  0  0  0  0  0  0  0  0
   -0.4430   -1.2284   -1.5292 H   0  0  0  0  0  0  0  0  0  0  0  0
    1.1083   -0.3141   -1.6468 H   0  0  0  0  0  0  0  0  0  0  0  0
   -4.7056    2.8432   -2.2131 H   0  0  0  0  0  0  0  0  0  0  0  0
   -4.5660    2.5779   -0.4516 H   0  0  0  0  0  0  0  0  0  0  0  0
   -2.2026    3.3153   -0.5044 H   0  0  0  0  0  0  0  0  0  0  0  0
   -2.2793    3.5142   -2.2592 H   0  0  0  0  0  0  0  0  0  0  0  0
   -3.2356    4.5686   -1.2052 H   0  0  0  0  0  0  0  0  0  0  0  0
   -1.4343    0.6294    1.7702 H   0  0  0  0  0  0  0  0  0  0  0  0
   -2.9679    1.0034    2.6066 H   0  0  0  0  0  0  0  0  0  0  0  0
   -2.2160   -1.2904    3.1670 H   0  0  0  0  0  0  0  0  0  0  0  0
   -3.7065   -1.3698    2.2095 H   0  0  0  0  0  0  0  0  0  0  0  0
   -2.1460   -1.7168    1.4553 H   0  0  0  0  0  0  0  0  0  0  0  0
  1  2  1  0  0  0  0
  2  3  1  0  0  0  0
  3  4  2  0  0  0  0
  4  5  2  0  0  0  0
  4  6  1  0  0  0  0
  6  7  1  0  0  0  0
  7  8  1  0  0  0  0
  4  9  1  0  0  0  0
  9 10  1  0  0  0  0
 10 11  1  0  0  0  0
 11 12  1  0  0  0  0
 12 13  2  0  0  0  0
 12 14  2  0  0  0  0
 14 15  1  0  0  0  0
 15 16  1  0  0  0  0
 12 17  2  0  0  0  0
 17 18  1  0  0  0  0
 18 19  1  0  0  0  0
  1 20  1  0  0  0  0
  1 21  1  0  0  0  0
  1 22  1  0  0  0  0
  2 23  1  0  0  0  0
  2 24  1  0  0  0  0
  7 25  1  0  0  0  0
  7 26  1  0  0  0  0
  8 27  1  0  0  0  0
  8 28  1  0  0  0  0
  8 29  1  0  0  0  0
 10 30  1  0  0  0  0
 10 31  1  0  0  0  0
 15 32  1  0  0  0  0
 15 33  1  0  0  0  0
 16 34  1  0  0  0  0
 16 35  1  0  0  0  0
 16 36  1  0  0  0  0
 18 37  1  0  0  0  0
 18 38  1  0  0  0  0
 19 39  1  0  0  0  0
 19 40  1  0  0  0  0
 19 41  1  0  0  0  0
M  END
