 xtb: 6.7.1 (edcfbbe)
          04092505203D

 41 40  0     0  0            999 V2000
    3.2373   -0.1953   -2.8050 C   0  0  0  0  0  0  0  0  0  0  0  0
    2.0843   -0.8478   -2.0725 C   0  0  0  0  0  0  0  0  0  0  0  0
    1.5022    0.0641   -1.1081 O   0  0  0  0  0  0  0  0  0  0  0  0
    1.8900    0.1122    0.4180 P   0  0  0  0  0  0  0  0  0  0  0  0
    0.9235    1.4970    1.4003 S   0  0  0  0  0  0  0  0  0  0  0  0
    3.4689    0.2816    0.3791 O   0  0  0  0  0  0  0  0  0  0  0  0
    4.2326    0.7214    1.5177 C   0  0  0  0  0  0  0  0  0  0  0  0
    4.2077   -0.2808    2.6531 C   0  0  0  0  0  0  0  0  0  0  0  0
    1.6087   -1.8761    1.1151 S   0  0  0  0  0  0  0  0  0  0  0  0
   -0.1853   -1.7747    1.3195 C   0  0  0  0  0  0  0  0  0  0  0  0
   -1.0929   -1.7645   -0.2651 S   0  0  0  0  0  0  0  0  0  0  0  0
   -1.9954    0.1567   -0.3786 P   0  0  0  0  0  0  0  0  0  0  0  0
   -1.2302    1.4891   -1.6063 S   0  0  0  0  0  0  0  0  0  0  0  0
   -2.1344    0.4635    1.1680 O   0  0  0  0  0  0  0  0  0  0  0  0
   -3.0663    1.4180    1.7240 C   0  0  0  0  0  0  0  0  0  0  0  0
   -2.6677    2.8481    1.4263 C   0  0  0  0  0  0  0  0  0  0  0  0
   -3.5094   -0.1777   -0.7547 O   0  0  0  0  0  0  0  0  0  0  0  0
   -3.9505   -0.2690   -2.1164 C   0  0  0  0  0  0  0  0  0  0  0  0
   -3.4221   -1.5212   -2.7852 C   0  0  0  0  0  0  0  0  0  0  0  0
    3.5928   -0.8716   -3.5761 H   0  0  0  0  0  0  0  0  0  0  0  0
    2.9049    0.7320   -3.2644 H   0  0  0  0  0  0  0  0  0  0  0  0
    4.0479    0.0243   -2.1154 H   0  0  0  0  0  0  0  0  0  0  0  0
    2.4021   -1.7566   -1.5532 H   0  0  0  0  0  0  0  0  0  0  0  0
    1.2603   -1.0790   -2.7511 H   0  0  0  0  0  0  0  0  0  0  0  0
    5.2391    0.8527    1.1179 H   0  0  0  0  0  0  0  0  0  0  0  0
    3.8345    1.6865    1.8460 H   0  0  0  0  0  0  0  0  0  0  0  0
    4.9110    0.0313    3.4185 H   0  0  0  0  0  0  0  0  0  0  0  0
    3.2111   -0.3273    3.0887 H   0  0  0  0  0  0  0  0  0  0  0  0
    4.4803   -1.2694    2.2924 H   0  0  0  0  0  0  0  0  0  0  0  0
   -0.4344   -0.8750    1.8797 H   0  0  0  0  0  0  0  0  0  0  0  0
   -0.4845   -2.6748    1.8492 H   0  0  0  0  0  0  0  0  0  0  0  0
   -4.0619    1.1931    1.3355 H   0  0  0  0  0  0  0  0  0  0  0  0
   -3.0252    1.2114    2.7950 H   0  0  0  0  0  0  0  0  0  0  0  0
   -2.7367    3.0487    0.3585 H   0  0  0  0  0  0  0  0  0  0  0  0
   -3.3271    3.5247    1.9602 H   0  0  0  0  0  0  0  0  0  0  0  0
   -1.6400    3.0209    1.7410 H   0  0  0  0  0  0  0  0  0  0  0  0
   -5.0388   -0.2739   -2.0456 H   0  0  0  0  0  0  0  0  0  0  0  0
   -3.6126    0.6261   -2.6501 H   0  0  0  0  0  0  0  0  0  0  0  0
   -2.3333   -1.4762   -2.8324 H   0  0  0  0  0  0  0  0  0  0  0  0
   -3.7078   -2.4037   -2.2192 H   0  0  0  0  0  0  0  0  0  0  0  0
   -3.8179   -1.5900   -3.7931 H   0  0  0  0  0  0  0  0  0  0  0  0
  1  2  1  0  0  0  0
  2  3  1  0  0  0  0
  3  4  2  0  0  0  0
  4  5  2  0  0  0  0
  4  6  2  0  0  0  0
  6  7  1  0  0  0  0
  7  8  1  0  0  0  0
  4  9  1  0  0  0  0
  9 10  1  0  0  0  0
 10 11  1  0  0  0  0
 11 12  1  0  0  0  0
 12 13  2  0  0  0  0
 12 14  2  0  0  0  0
 14 15  1  0  0  0  0
 15 16  1  0  0  0  0
 12 17  2  0  0  0  0
 17 18  1  0  0  0  0
 18 19  1  0  0  0  0
  1 20  1  0  0  0  0
  1 21  1  0  0  0  0
  1 22  1  0  0  0  0
  2 23  1  0  0  0  0
  2 24  1  0  0  0  0
  7 25  1  0  0  0  0
  7 26  1  0  0  0  0
  8 27  1  0  0  0  0
  8 28  1  0  0  0  0
  8 29  1  0  0  0  0
 10 30  1  0  0  0  0
 10 31  1  0  0  0  0
 15 32  1  0  0  0  0
 15 33  1  0  0  0  0
 16 34  1  0  0  0  0
 16 35  1  0  0  0  0
 16 36  1  0  0  0  0
 18 37  1  0  0  0  0
 18 38  1  0  0  0  0
 19 39  1  0  0  0  0
 19 40  1  0  0  0  0
 19 41  1  0  0  0  0
M  END
