 xtb: 6.7.1 (edcfbbe)
          04092505203D

 41 40  0     0  0            999 V2000
    3.2551   -1.1441   -2.3601 C   0  0  0  0  0  0  0  0  0  0  0  0
    1.8141   -0.6975   -2.2496 C   0  0  0  0  0  0  0  0  0  0  0  0
    1.5823    0.2579   -1.1837 O   0  0  0  0  0  0  0  0  0  0  0  0
    1.9806    0.1274    0.3321 P   0  0  0  0  0  0  0  0  0  0  0  0
    0.9904    1.4544    1.3810 S   0  0  0  0  0  0  0  0  0  0  0  0
    3.5562    0.2920    0.2985 O   0  0  0  0  0  0  0  0  0  0  0  0
    4.4618   -0.1282    1.3371 C   0  0  0  0  0  0  0  0  0  0  0  0
    4.1260    0.4651    2.6891 C   0  0  0  0  0  0  0  0  0  0  0  0
    1.6755   -1.8888    0.9261 S   0  0  0  0  0  0  0  0  0  0  0  0
   -0.0929   -1.7370    1.2557 C   0  0  0  0  0  0  0  0  0  0  0  0
   -1.0973   -1.6868   -0.2685 S   0  0  0  0  0  0  0  0  0  0  0  0
   -2.0165    0.2239   -0.3025 P   0  0  0  0  0  0  0  0  0  0  0  0
   -1.2965    1.6892   -1.3973 S   0  0  0  0  0  0  0  0  0  0  0  0
   -2.1867    0.4531    1.2533 O   0  0  0  0  0  0  0  0  0  0  0  0
   -2.4658    1.7522    1.8122 C   0  0  0  0  0  0  0  0  0  0  0  0
   -3.8336    2.2575    1.4088 C   0  0  0  0  0  0  0  0  0  0  0  0
   -3.5028   -0.1608   -0.7330 O   0  0  0  0  0  0  0  0  0  0  0  0
   -3.9172   -0.1934   -2.1058 C   0  0  0  0  0  0  0  0  0  0  0  0
   -3.2696   -1.3394   -2.8565 C   0  0  0  0  0  0  0  0  0  0  0  0
    3.3636   -1.7433   -3.2590 H   0  0  0  0  0  0  0  0  0  0  0  0
    3.9133   -0.2812   -2.4217 H   0  0  0  0  0  0  0  0  0  0  0  0
    3.5356   -1.7469   -1.4988 H   0  0  0  0  0  0  0  0  0  0  0  0
    1.1503   -1.5518   -2.0834 H   0  0  0  0  0  0  0  0  0  0  0  0
    1.4894   -0.1505   -3.1367 H   0  0  0  0  0  0  0  0  0  0  0  0
    4.4454   -1.2206    1.3805 H   0  0  0  0  0  0  0  0  0  0  0  0
    5.4344    0.2159    0.9814 H   0  0  0  0  0  0  0  0  0  0  0  0
    4.8891    0.1807    3.4064 H   0  0  0  0  0  0  0  0  0  0  0  0
    4.0763    1.5497    2.6261 H   0  0  0  0  0  0  0  0  0  0  0  0
    3.1601    0.0982    3.0329 H   0  0  0  0  0  0  0  0  0  0  0  0
   -0.2761   -0.8318    1.8353 H   0  0  0  0  0  0  0  0  0  0  0  0
   -0.3856   -2.6306    1.7998 H   0  0  0  0  0  0  0  0  0  0  0  0
   -2.3885    1.5915    2.8885 H   0  0  0  0  0  0  0  0  0  0  0  0
   -1.6778    2.4425    1.4930 H   0  0  0  0  0  0  0  0  0  0  0  0
   -4.5931    1.5202    1.6551 H   0  0  0  0  0  0  0  0  0  0  0  0
   -4.0406    3.1847    1.9337 H   0  0  0  0  0  0  0  0  0  0  0  0
   -3.8565    2.4452    0.3358 H   0  0  0  0  0  0  0  0  0  0  0  0
   -5.0011   -0.3018   -2.0543 H   0  0  0  0  0  0  0  0  0  0  0  0
   -3.6572    0.7647   -2.5686 H   0  0  0  0  0  0  0  0  0  0  0  0
   -2.1900   -1.1876   -2.8904 H   0  0  0  0  0  0  0  0  0  0  0  0
   -3.4725   -2.2832   -2.3573 H   0  0  0  0  0  0  0  0  0  0  0  0
   -3.6539   -1.3734   -3.8707 H   0  0  0  0  0  0  0  0  0  0  0  0
  1  2  1  0  0  0  0
  2  3  1  0  0  0  0
  3  4  2  0  0  0  0
  4  5  2  0  0  0  0
  4  6  2  0  0  0  0
  6  7  1  0  0  0  0
  7  8  1  0  0  0  0
  4  9  1  0  0  0  0
  9 10  1  0  0  0  0
 10 11  1  0  0  0  0
 11 12  1  0  0  0  0
 12 13  2  0  0  0  0
 12 14  2  0  0  0  0
 14 15  1  0  0  0  0
 15 16  1  0  0  0  0
 12 17  2  0  0  0  0
 17 18  1  0  0  0  0
 18 19  1  0  0  0  0
  1 20  1  0  0  0  0
  1 21  1  0  0  0  0
  1 22  1  0  0  0  0
  2 23  1  0  0  0  0
  2 24  1  0  0  0  0
  7 25  1  0  0  0  0
  7 26  1  0  0  0  0
  8 27  1  0  0  0  0
  8 28  1  0  0  0  0
  8 29  1  0  0  0  0
 10 30  1  0  0  0  0
 10 31  1  0  0  0  0
 15 32  1  0  0  0  0
 15 33  1  0  0  0  0
 16 34  1  0  0  0  0
 16 35  1  0  0  0  0
 16 36  1  0  0  0  0
 18 37  1  0  0  0  0
 18 38  1  0  0  0  0
 19 39  1  0  0  0  0
 19 40  1  0  0  0  0
 19 41  1  0  0  0  0
M  END
