 xtb: 6.7.1 (edcfbbe)
          04092505203D

 41 40  0     0  0            999 V2000
    3.7795   -1.4441   -2.5542 C   0  0  0  0  0  0  0  0  0  0  0  0
    4.0703   -1.7353   -1.0961 C   0  0  0  0  0  0  0  0  0  0  0  0
    2.8799   -1.7052   -0.2895 O   0  0  0  0  0  0  0  0  0  0  0  0
    2.0780   -0.3656    0.0029 P   0  0  0  0  0  0  0  0  0  0  0  0
    3.1803    1.2332    0.2947 S   0  0  0  0  0  0  0  0  0  0  0  0
    1.1509   -0.8151    1.2052 O   0  0  0  0  0  0  0  0  0  0  0  0
    1.4734   -0.5329    2.5796 C   0  0  0  0  0  0  0  0  0  0  0  0
    2.6541   -1.3539    3.0533 C   0  0  0  0  0  0  0  0  0  0  0  0
    0.6470   -0.2705   -1.5518 S   0  0  0  0  0  0  0  0  0  0  0  0
    0.1329    1.4389   -1.2414 C   0  0  0  0  0  0  0  0  0  0  0  0
   -0.6188    1.6623    0.3905 S   0  0  0  0  0  0  0  0  0  0  0  0
   -2.3095    0.4224    0.0450 P   0  0  0  0  0  0  0  0  0  0  0  0
   -3.0478    0.4821   -1.7744 S   0  0  0  0  0  0  0  0  0  0  0  0
   -3.2655    0.8014    1.2511 O   0  0  0  0  0  0  0  0  0  0  0  0
   -3.6165    2.1393    1.6509 C   0  0  0  0  0  0  0  0  0  0  0  0
   -4.2004    2.9573    0.5173 C   0  0  0  0  0  0  0  0  0  0  0  0
   -1.9114   -1.0280    0.5407 O   0  0  0  0  0  0  0  0  0  0  0  0
   -2.0374   -2.2251   -0.2577 C   0  0  0  0  0  0  0  0  0  0  0  0
   -0.9536   -3.2024    0.1476 C   0  0  0  0  0  0  0  0  0  0  0  0
    4.6819   -1.5950   -3.1379 H   0  0  0  0  0  0  0  0  0  0  0  0
    2.9960   -2.1013   -2.9231 H   0  0  0  0  0  0  0  0  0  0  0  0
    3.4529   -0.4114   -2.6707 H   0  0  0  0  0  0  0  0  0  0  0  0
    4.7792   -1.0050   -0.6931 H   0  0  0  0  0  0  0  0  0  0  0  0
    4.4560   -2.7459   -0.9555 H   0  0  0  0  0  0  0  0  0  0  0  0
    1.6794    0.5385    2.6759 H   0  0  0  0  0  0  0  0  0  0  0  0
    0.5582   -0.7808    3.1194 H   0  0  0  0  0  0  0  0  0  0  0  0
    2.4708   -2.4112    2.8815 H   0  0  0  0  0  0  0  0  0  0  0  0
    3.5499   -1.0583    2.5078 H   0  0  0  0  0  0  0  0  0  0  0  0
    2.8129   -1.1800    4.1129 H   0  0  0  0  0  0  0  0  0  0  0  0
   -0.5924    1.6887   -2.0158 H   0  0  0  0  0  0  0  0  0  0  0  0
    1.0005    2.0971   -1.2760 H   0  0  0  0  0  0  0  0  0  0  0  0
   -4.3462    1.9836    2.4476 H   0  0  0  0  0  0  0  0  0  0  0  0
   -2.7227    2.6216    2.0569 H   0  0  0  0  0  0  0  0  0  0  0  0
   -5.0419    2.4351    0.0681 H   0  0  0  0  0  0  0  0  0  0  0  0
   -4.5348    3.9161    0.9001 H   0  0  0  0  0  0  0  0  0  0  0  0
   -3.4484    3.1254   -0.2524 H   0  0  0  0  0  0  0  0  0  0  0  0
   -3.0307   -2.6374   -0.0642 H   0  0  0  0  0  0  0  0  0  0  0  0
   -1.9639   -1.9600   -1.3178 H   0  0  0  0  0  0  0  0  0  0  0  0
   -1.0264   -3.4165    1.2099 H   0  0  0  0  0  0  0  0  0  0  0  0
   -1.0806   -4.1206   -0.4166 H   0  0  0  0  0  0  0  0  0  0  0  0
    0.0307   -2.7897   -0.0597 H   0  0  0  0  0  0  0  0  0  0  0  0
  1  2  1  0  0  0  0
  2  3  1  0  0  0  0
  3  4  2  0  0  0  0
  4  5  2  0  0  0  0
  4  6  2  0  0  0  0
  6  7  1  0  0  0  0
  7  8  1  0  0  0  0
  4  9  1  0  0  0  0
  9 10  1  0  0  0  0
 10 11  1  0  0  0  0
 11 12  1  0  0  0  0
 12 13  2  0  0  0  0
 12 14  2  0  0  0  0
 14 15  1  0  0  0  0
 15 16  1  0  0  0  0
 12 17  2  0  0  0  0
 17 18  1  0  0  0  0
 18 19  1  0  0  0  0
  1 20  1  0  0  0  0
  1 21  1  0  0  0  0
  1 22  1  0  0  0  0
  2 23  1  0  0  0  0
  2 24  1  0  0  0  0
  7 25  1  0  0  0  0
  7 26  1  0  0  0  0
  8 27  1  0  0  0  0
  8 28  1  0  0  0  0
  8 29  1  0  0  0  0
 10 30  1  0  0  0  0
 10 31  1  0  0  0  0
 15 32  1  0  0  0  0
 15 33  1  0  0  0  0
 16 34  1  0  0  0  0
 16 35  1  0  0  0  0
 16 36  1  0  0  0  0
 18 37  1  0  0  0  0
 18 38  1  0  0  0  0
 19 39  1  0  0  0  0
 19 40  1  0  0  0  0
 19 41  1  0  0  0  0
M  END
