 xtb: 6.7.1 (edcfbbe)
          04092505203D

 41 40  0     0  0            999 V2000
    5.1122   -2.2656   -1.4266 C   0  0  0  0  0  0  0  0  0  0  0  0
    4.1345   -1.1115   -1.5155 C   0  0  0  0  0  0  0  0  0  0  0  0
    3.1155   -1.3164   -0.5150 O   0  0  0  0  0  0  0  0  0  0  0  0
    2.1478   -0.1414   -0.0658 P   0  0  0  0  0  0  0  0  0  0  0  0
    3.0390    1.5432    0.4041 S   0  0  0  0  0  0  0  0  0  0  0  0
    1.3099   -0.8534    1.0682 O   0  0  0  0  0  0  0  0  0  0  0  0
    1.5642   -0.6294    2.4695 C   0  0  0  0  0  0  0  0  0  0  0  0
    2.8355   -1.3222    2.9115 C   0  0  0  0  0  0  0  0  0  0  0  0
    0.7530   -0.0455   -1.6520 S   0  0  0  0  0  0  0  0  0  0  0  0
    0.0823    1.5900   -1.2415 C   0  0  0  0  0  0  0  0  0  0  0  0
   -0.6988    1.6543    0.3937 S   0  0  0  0  0  0  0  0  0  0  0  0
   -2.2317    0.2576   -0.0158 P   0  0  0  0  0  0  0  0  0  0  0  0
   -3.0026    0.2739   -1.8210 S   0  0  0  0  0  0  0  0  0  0  0  0
   -3.2722    0.4622    1.1669 O   0  0  0  0  0  0  0  0  0  0  0  0
   -4.3780    1.3779    1.0743 C   0  0  0  0  0  0  0  0  0  0  0  0
   -3.9236    2.8230    1.0511 C   0  0  0  0  0  0  0  0  0  0  0  0
   -1.5073   -1.0756    0.4358 O   0  0  0  0  0  0  0  0  0  0  0  0
   -1.8742   -2.3692   -0.0818 C   0  0  0  0  0  0  0  0  0  0  0  0
   -3.2197   -2.8191    0.4472 C   0  0  0  0  0  0  0  0  0  0  0  0
    5.5868   -2.2810   -0.4497 H   0  0  0  0  0  0  0  0  0  0  0  0
    4.5894   -3.2052   -1.5794 H   0  0  0  0  0  0  0  0  0  0  0  0
    5.8719   -2.1474   -2.1922 H   0  0  0  0  0  0  0  0  0  0  0  0
    3.6494   -1.0722   -2.4948 H   0  0  0  0  0  0  0  0  0  0  0  0
    4.6248   -0.1516   -1.3208 H   0  0  0  0  0  0  0  0  0  0  0  0
    1.6257    0.4498    2.6457 H   0  0  0  0  0  0  0  0  0  0  0  0
    0.6801   -1.0328    2.9651 H   0  0  0  0  0  0  0  0  0  0  0  0
    2.9624   -1.1975    3.9822 H   0  0  0  0  0  0  0  0  0  0  0  0
    2.7904   -2.3808    2.6700 H   0  0  0  0  0  0  0  0  0  0  0  0
    3.6890   -0.8800    2.3986 H   0  0  0  0  0  0  0  0  0  0  0  0
   -0.6536    1.8209   -2.0109 H   0  0  0  0  0  0  0  0  0  0  0  0
    0.8888    2.3223   -1.2261 H   0  0  0  0  0  0  0  0  0  0  0  0
   -4.9475    1.1404    0.1700 H   0  0  0  0  0  0  0  0  0  0  0  0
   -4.9752    1.1567    1.9598 H   0  0  0  0  0  0  0  0  0  0  0  0
   -3.3833    3.0295    0.1280 H   0  0  0  0  0  0  0  0  0  0  0  0
   -4.7908    3.4734    1.1041 H   0  0  0  0  0  0  0  0  0  0  0  0
   -3.2661    3.0267    1.8926 H   0  0  0  0  0  0  0  0  0  0  0  0
   -1.8833   -2.3157   -1.1757 H   0  0  0  0  0  0  0  0  0  0  0  0
   -1.0639   -3.0217    0.2469 H   0  0  0  0  0  0  0  0  0  0  0  0
   -4.0016   -2.1593    0.0724 H   0  0  0  0  0  0  0  0  0  0  0  0
   -3.4199   -3.8313    0.1100 H   0  0  0  0  0  0  0  0  0  0  0  0
   -3.2258   -2.7891    1.5336 H   0  0  0  0  0  0  0  0  0  0  0  0
  1  2  1  0  0  0  0
  2  3  1  0  0  0  0
  3  4  2  0  0  0  0
  4  5  2  0  0  0  0
  4  6  2  0  0  0  0
  6  7  1  0  0  0  0
  7  8  1  0  0  0  0
  4  9  1  0  0  0  0
  9 10  1  0  0  0  0
 10 11  1  0  0  0  0
 11 12  1  0  0  0  0
 12 13  2  0  0  0  0
 12 14  2  0  0  0  0
 14 15  1  0  0  0  0
 15 16  1  0  0  0  0
 12 17  2  0  0  0  0
 17 18  1  0  0  0  0
 18 19  1  0  0  0  0
  1 20  1  0  0  0  0
  1 21  1  0  0  0  0
  1 22  1  0  0  0  0
  2 23  1  0  0  0  0
  2 24  1  0  0  0  0
  7 25  1  0  0  0  0
  7 26  1  0  0  0  0
  8 27  1  0  0  0  0
  8 28  1  0  0  0  0
  8 29  1  0  0  0  0
 10 30  1  0  0  0  0
 10 31  1  0  0  0  0
 15 32  1  0  0  0  0
 15 33  1  0  0  0  0
 16 34  1  0  0  0  0
 16 35  1  0  0  0  0
 16 36  1  0  0  0  0
 18 37  1  0  0  0  0
 18 38  1  0  0  0  0
 19 39  1  0  0  0  0
 19 40  1  0  0  0  0
 19 41  1  0  0  0  0
M  END
