 xtb: 6.7.1 (edcfbbe)
          04092505213D

 41 40  0     0  0            999 V2000
    4.6316    1.2295   -1.5599 C   0  0  0  0  0  0  0  0  0  0  0  0
    4.8384   -0.0317   -0.7470 C   0  0  0  0  0  0  0  0  0  0  0  0
    3.6167   -0.7704   -0.5584 O   0  0  0  0  0  0  0  0  0  0  0  0
    2.4051   -0.2121    0.3077 P   0  0  0  0  0  0  0  0  0  0  0  0
    2.8955    0.7590    1.9302 S   0  0  0  0  0  0  0  0  0  0  0  0
    1.5958   -1.5309    0.6145 O   0  0  0  0  0  0  0  0  0  0  0  0
    1.3553   -2.5567   -0.3846 C   0  0  0  0  0  0  0  0  0  0  0  0
    0.4425   -3.5932    0.2338 C   0  0  0  0  0  0  0  0  0  0  0  0
    1.2292    0.8707   -1.1099 S   0  0  0  0  0  0  0  0  0  0  0  0
    0.3347    1.8755    0.1036 C   0  0  0  0  0  0  0  0  0  0  0  0
   -0.6886    0.9086    1.2471 S   0  0  0  0  0  0  0  0  0  0  0  0
   -2.2216    0.3247   -0.1087 P   0  0  0  0  0  0  0  0  0  0  0  0
   -1.7828   -1.0528   -1.4376 S   0  0  0  0  0  0  0  0  0  0  0  0
   -2.6318    1.7578   -0.6455 O   0  0  0  0  0  0  0  0  0  0  0  0
   -3.9544    2.1006   -1.1195 C   0  0  0  0  0  0  0  0  0  0  0  0
   -4.3631    1.2839   -2.3272 C   0  0  0  0  0  0  0  0  0  0  0  0
   -3.4485   -0.0588    0.8258 O   0  0  0  0  0  0  0  0  0  0  0  0
   -3.6301   -1.3956    1.3208 C   0  0  0  0  0  0  0  0  0  0  0  0
   -2.6885   -1.6941    2.4696 C   0  0  0  0  0  0  0  0  0  0  0  0
    4.0395    1.9455   -0.9920 H   0  0  0  0  0  0  0  0  0  0  0  0
    5.5968    1.6717   -1.7846 H   0  0  0  0  0  0  0  0  0  0  0  0
    4.1125    1.0018   -2.4877 H   0  0  0  0  0  0  0  0  0  0  0  0
    5.2491    0.2089    0.2383 H   0  0  0  0  0  0  0  0  0  0  0  0
    5.4904   -0.7399   -1.2603 H   0  0  0  0  0  0  0  0  0  0  0  0
    0.8909   -2.0920   -1.2597 H   0  0  0  0  0  0  0  0  0  0  0  0
    2.3188   -2.9828   -0.6686 H   0  0  0  0  0  0  0  0  0  0  0  0
   -0.5338   -3.1592    0.4314 H   0  0  0  0  0  0  0  0  0  0  0  0
    0.3246   -4.4177   -0.4615 H   0  0  0  0  0  0  0  0  0  0  0  0
    0.8668   -3.9564    1.1653 H   0  0  0  0  0  0  0  0  0  0  0  0
   -0.2871    2.5710   -0.4533 H   0  0  0  0  0  0  0  0  0  0  0  0
    1.0550    2.3975    0.7338 H   0  0  0  0  0  0  0  0  0  0  0  0
   -4.6584    1.9640   -0.2963 H   0  0  0  0  0  0  0  0  0  0  0  0
   -3.8675    3.1607   -1.3637 H   0  0  0  0  0  0  0  0  0  0  0  0
   -5.3230    1.6364   -2.6916 H   0  0  0  0  0  0  0  0  0  0  0  0
   -3.6213    1.3776   -3.1169 H   0  0  0  0  0  0  0  0  0  0  0  0
   -4.4488    0.2318   -2.0593 H   0  0  0  0  0  0  0  0  0  0  0  0
   -4.6731   -1.4252    1.6385 H   0  0  0  0  0  0  0  0  0  0  0  0
   -3.4721   -2.0964    0.4934 H   0  0  0  0  0  0  0  0  0  0  0  0
   -2.8863   -2.6905    2.8514 H   0  0  0  0  0  0  0  0  0  0  0  0
   -1.6536   -1.6425    2.1306 H   0  0  0  0  0  0  0  0  0  0  0  0
   -2.8220   -0.9674    3.2666 H   0  0  0  0  0  0  0  0  0  0  0  0
  1  2  1  0  0  0  0
  2  3  1  0  0  0  0
  3  4  2  0  0  0  0
  4  5  2  0  0  0  0
  4  6  2  0  0  0  0
  6  7  1  0  0  0  0
  7  8  1  0  0  0  0
  4  9  1  0  0  0  0
  9 10  1  0  0  0  0
 10 11  1  0  0  0  0
 11 12  1  0  0  0  0
 12 13  2  0  0  0  0
 12 14  2  0  0  0  0
 14 15  1  0  0  0  0
 15 16  1  0  0  0  0
 12 17  2  0  0  0  0
 17 18  1  0  0  0  0
 18 19  1  0  0  0  0
  1 20  1  0  0  0  0
  1 21  1  0  0  0  0
  1 22  1  0  0  0  0
  2 23  1  0  0  0  0
  2 24  1  0  0  0  0
  7 25  1  0  0  0  0
  7 26  1  0  0  0  0
  8 27  1  0  0  0  0
  8 28  1  0  0  0  0
  8 29  1  0  0  0  0
 10 30  1  0  0  0  0
 10 31  1  0  0  0  0
 15 32  1  0  0  0  0
 15 33  1  0  0  0  0
 16 34  1  0  0  0  0
 16 35  1  0  0  0  0
 16 36  1  0  0  0  0
 18 37  1  0  0  0  0
 18 38  1  0  0  0  0
 19 39  1  0  0  0  0
 19 40  1  0  0  0  0
 19 41  1  0  0  0  0
M  END
