 xtb: 6.7.1 (edcfbbe)
          04092507313D

 38 37  0     0  0            999 V2000
    3.8214   -2.7864    0.6788 C   0  0  0  0  0  0  0  0  0  0  0  0
    2.3121   -2.6749    0.5380 C   0  0  0  0  0  0  0  0  0  0  0  0
    1.9603   -1.9159   -0.6336 O   0  0  0  0  0  0  0  0  0  0  0  0
    1.9425   -0.6029   -0.5609 C   0  0  0  0  0  0  0  0  0  0  0  0
    2.1608    0.0487    0.4387 O   0  0  0  0  0  0  0  0  0  0  0  0
    1.6113    0.0298   -1.9012 C   0  0  0  0  0  0  0  0  0  0  0  0
    0.3347    0.8692   -1.7997 C   0  0  0  0  0  0  0  0  0  0  0  0
    0.2409    1.5023   -2.6853 H   0  0  0  0  0  0  0  0  0  0  0  0
    0.3426    1.7464   -0.5628 C   0  0  0  0  0  0  0  0  0  0  0  0
   -0.4869    1.6242    0.3240 O   0  0  0  0  0  0  0  0  0  0  0  0
    1.2769    2.6433   -0.6074 O   0  0  0  0  0  0  0  0  0  0  0  0
    1.4948    3.5189    0.5231 C   0  0  0  0  0  0  0  0  0  0  0  0
    2.8865    3.2720    1.0774 C   0  0  0  0  0  0  0  0  0  0  0  0
   -1.1747   -0.1599   -1.7882 S   0  0  0  0  0  0  0  0  0  0  0  0
   -1.8031   -0.3990    0.2248 P   0  0  0  0  0  0  0  0  0  0  0  0
   -0.6632   -0.9687    1.7261 S   0  0  0  0  0  0  0  0  0  0  0  0
   -2.9529    0.6621    0.5103 O   0  0  0  0  0  0  0  0  0  0  0  0
   -2.9668    1.5825    1.6018 C   0  0  0  0  0  0  0  0  0  0  0  0
   -2.8467   -1.5799   -0.1209 O   0  0  0  0  0  0  0  0  0  0  0  0
   -2.4105   -2.9153   -0.3753 C   0  0  0  0  0  0  0  0  0  0  0  0
    4.2496   -3.2168   -0.2223 H   0  0  0  0  0  0  0  0  0  0  0  0
    4.2551   -1.8035    0.8475 H   0  0  0  0  0  0  0  0  0  0  0  0
    4.0527   -3.4224    1.5266 H   0  0  0  0  0  0  0  0  0  0  0  0
    1.8662   -2.1939    1.4142 H   0  0  0  0  0  0  0  0  0  0  0  0
    1.8530   -3.6501    0.3755 H   0  0  0  0  0  0  0  0  0  0  0  0
    1.4853   -0.7468   -2.6532 H   0  0  0  0  0  0  0  0  0  0  0  0
    2.4387    0.6892   -2.1699 H   0  0  0  0  0  0  0  0  0  0  0  0
    1.3924    4.5331    0.1322 H   0  0  0  0  0  0  0  0  0  0  0  0
    0.7269    3.3220    1.2747 H   0  0  0  0  0  0  0  0  0  0  0  0
    2.9799    2.2311    1.3786 H   0  0  0  0  0  0  0  0  0  0  0  0
    3.6355    3.4897    0.3223 H   0  0  0  0  0  0  0  0  0  0  0  0
    3.0468    3.9098    1.9400 H   0  0  0  0  0  0  0  0  0  0  0  0
   -2.7559    2.5815    1.2236 H   0  0  0  0  0  0  0  0  0  0  0  0
   -2.2188    1.3043    2.3466 H   0  0  0  0  0  0  0  0  0  0  0  0
   -3.9648    1.5341    2.0327 H   0  0  0  0  0  0  0  0  0  0  0  0
   -1.9529   -2.9828   -1.3628 H   0  0  0  0  0  0  0  0  0  0  0  0
   -3.3054   -3.5304   -0.3264 H   0  0  0  0  0  0  0  0  0  0  0  0
   -1.6944   -3.2250    0.3896 H   0  0  0  0  0  0  0  0  0  0  0  0
  1  2  1  0  0  0  0
  2  3  1  0  0  0  0
  3  4  4  0  0  0  0
  4  5  2  0  0  0  0
  4  6  1  0  0  0  0
  6  7  1  0  0  0  0
  7  8  1  0  0  0  0
  7  9  1  0  0  0  0
  9 10  2  0  0  0  0
  9 11  4  0  0  0  0
 11 12  1  0  0  0  0
 12 13  1  0  0  0  0
  7 14  1  0  0  0  0
 14 15  1  0  0  0  0
 15 16  2  0  0  0  0
 15 17  2  0  0  0  0
 17 18  1  0  0  0  0
 15 19  1  0  0  0  0
 19 20  1  0  0  0  0
  1 21  1  0  0  0  0
  1 22  1  0  0  0  0
  1 23  1  0  0  0  0
  2 24  1  0  0  0  0
  2 25  1  0  0  0  0
  6 26  1  0  0  0  0
  6 27  1  0  0  0  0
 12 28  1  0  0  0  0
 12 29  1  0  0  0  0
 13 30  1  0  0  0  0
 13 31  1  0  0  0  0
 13 32  1  0  0  0  0
 18 33  1  0  0  0  0
 18 34  1  0  0  0  0
 18 35  1  0  0  0  0
 20 36  1  0  0  0  0
 20 37  1  0  0  0  0
 20 38  1  0  0  0  0
M  END
