 xtb: 6.7.1 (edcfbbe)
          04092505213D

 41 40  0     0  0            999 V2000
    5.0561   -1.3146   -1.1046 C   0  0  0  0  0  0  0  0  0  0  0  0
    4.7427    0.0490   -1.6805 C   0  0  0  0  0  0  0  0  0  0  0  0
    3.3176    0.2710   -1.8444 O   0  0  0  0  0  0  0  0  0  0  0  0
    2.2594    0.3256   -0.6865 P   0  0  0  0  0  0  0  0  0  0  0  0
    0.6521    1.3041   -1.2381 S   0  0  0  0  0  0  0  0  0  0  0  0
    3.0853    1.0258    0.4829 O   0  0  0  0  0  0  0  0  0  0  0  0
    2.4969    1.4555    1.7233 C   0  0  0  0  0  0  0  0  0  0  0  0
    2.7683    0.4494    2.8254 C   0  0  0  0  0  0  0  0  0  0  0  0
    1.9571   -1.7095   -0.1286 S   0  0  0  0  0  0  0  0  0  0  0  0
    0.3285   -1.6740    0.6580 C   0  0  0  0  0  0  0  0  0  0  0  0
   -1.0816   -1.7319   -0.5114 S   0  0  0  0  0  0  0  0  0  0  0  0
   -2.1749   -0.0440    0.1335 P   0  0  0  0  0  0  0  0  0  0  0  0
   -1.4451    0.9551    1.6590 S   0  0  0  0  0  0  0  0  0  0  0  0
   -3.6226   -0.6449    0.4201 O   0  0  0  0  0  0  0  0  0  0  0  0
   -3.8780   -1.4549    1.5837 C   0  0  0  0  0  0  0  0  0  0  0  0
   -5.3762   -1.6523    1.6941 C   0  0  0  0  0  0  0  0  0  0  0  0
   -2.4653    0.7150   -1.2185 O   0  0  0  0  0  0  0  0  0  0  0  0
   -2.7200    2.1314   -1.2749 C   0  0  0  0  0  0  0  0  0  0  0  0
   -4.0511    2.4834   -0.6453 C   0  0  0  0  0  0  0  0  0  0  0  0
    6.1310   -1.4657   -1.1212 H   0  0  0  0  0  0  0  0  0  0  0  0
    4.7043   -1.3842   -0.0776 H   0  0  0  0  0  0  0  0  0  0  0  0
    4.5759   -2.0940   -1.6908 H   0  0  0  0  0  0  0  0  0  0  0  0
    5.1237    0.1548   -2.6974 H   0  0  0  0  0  0  0  0  0  0  0  0
    5.1393    0.8451   -1.0484 H   0  0  0  0  0  0  0  0  0  0  0  0
    2.9722    2.4138    1.9415 H   0  0  0  0  0  0  0  0  0  0  0  0
    1.4232    1.6207    1.5817 H   0  0  0  0  0  0  0  0  0  0  0  0
    2.3295    0.8148    3.7484 H   0  0  0  0  0  0  0  0  0  0  0  0
    2.3298   -0.5160    2.5857 H   0  0  0  0  0  0  0  0  0  0  0  0
    3.8390    0.3247    2.9587 H   0  0  0  0  0  0  0  0  0  0  0  0
    0.2146   -0.7799    1.2771 H   0  0  0  0  0  0  0  0  0  0  0  0
    0.2905   -2.5788    1.2592 H   0  0  0  0  0  0  0  0  0  0  0  0
   -3.3585   -2.4097    1.4583 H   0  0  0  0  0  0  0  0  0  0  0  0
   -3.4733   -0.9392    2.4612 H   0  0  0  0  0  0  0  0  0  0  0  0
   -5.8722   -0.6937    1.8162 H   0  0  0  0  0  0  0  0  0  0  0  0
   -5.7527   -2.1305    0.7946 H   0  0  0  0  0  0  0  0  0  0  0  0
   -5.5902   -2.2794    2.5532 H   0  0  0  0  0  0  0  0  0  0  0  0
   -1.8937    2.6520   -0.7793 H   0  0  0  0  0  0  0  0  0  0  0  0
   -2.6962    2.3567   -2.3419 H   0  0  0  0  0  0  0  0  0  0  0  0
   -4.8469    1.9079   -1.1107 H   0  0  0  0  0  0  0  0  0  0  0  0
   -4.0270    2.2553    0.4199 H   0  0  0  0  0  0  0  0  0  0  0  0
   -4.2419    3.5439   -0.7763 H   0  0  0  0  0  0  0  0  0  0  0  0
  1  2  1  0  0  0  0
  2  3  1  0  0  0  0
  3  4  2  0  0  0  0
  4  5  2  0  0  0  0
  4  6  2  0  0  0  0
  6  7  1  0  0  0  0
  7  8  1  0  0  0  0
  4  9  1  0  0  0  0
  9 10  1  0  0  0  0
 10 11  1  0  0  0  0
 11 12  1  0  0  0  0
 12 13  2  0  0  0  0
 12 14  2  0  0  0  0
 14 15  1  0  0  0  0
 15 16  1  0  0  0  0
 12 17  2  0  0  0  0
 17 18  1  0  0  0  0
 18 19  1  0  0  0  0
  1 20  1  0  0  0  0
  1 21  1  0  0  0  0
  1 22  1  0  0  0  0
  2 23  1  0  0  0  0
  2 24  1  0  0  0  0
  7 25  1  0  0  0  0
  7 26  1  0  0  0  0
  8 27  1  0  0  0  0
  8 28  1  0  0  0  0
  8 29  1  0  0  0  0
 10 30  1  0  0  0  0
 10 31  1  0  0  0  0
 15 32  1  0  0  0  0
 15 33  1  0  0  0  0
 16 34  1  0  0  0  0
 16 35  1  0  0  0  0
 16 36  1  0  0  0  0
 18 37  1  0  0  0  0
 18 38  1  0  0  0  0
 19 39  1  0  0  0  0
 19 40  1  0  0  0  0
 19 41  1  0  0  0  0
M  END
