 xtb: 6.7.1 (edcfbbe)
          04092505213D

 41 40  0     0  0            999 V2000
    5.5897    1.2078   -1.0473 C   0  0  0  0  0  0  0  0  0  0  0  0
    4.1169    0.9930   -1.3325 C   0  0  0  0  0  0  0  0  0  0  0  0
    3.6414   -0.0476   -0.4557 O   0  0  0  0  0  0  0  0  0  0  0  0
    2.1008   -0.2308   -0.1197 P   0  0  0  0  0  0  0  0  0  0  0  0
    1.1932    1.4495    0.3351 S   0  0  0  0  0  0  0  0  0  0  0  0
    2.1206   -1.3658    0.9784 O   0  0  0  0  0  0  0  0  0  0  0  0
    2.1945   -1.0850    2.3908 C   0  0  0  0  0  0  0  0  0  0  0  0
    3.4885   -0.3940    2.7613 C   0  0  0  0  0  0  0  0  0  0  0  0
    1.4379   -1.3352   -1.7891 S   0  0  0  0  0  0  0  0  0  0  0  0
   -0.3008   -1.6015   -1.3510 C   0  0  0  0  0  0  0  0  0  0  0  0
   -1.3464   -0.1373   -1.6140 S   0  0  0  0  0  0  0  0  0  0  0  0
   -2.3535   -0.1151    0.2689 P   0  0  0  0  0  0  0  0  0  0  0  0
   -1.3222   -0.8766    1.7527 S   0  0  0  0  0  0  0  0  0  0  0  0
   -3.6729   -0.9650    0.1128 O   0  0  0  0  0  0  0  0  0  0  0  0
   -4.8962   -0.5417   -0.5365 C   0  0  0  0  0  0  0  0  0  0  0  0
   -4.7178   -0.2846   -2.0180 C   0  0  0  0  0  0  0  0  0  0  0  0
   -2.9393    1.3511    0.3807 O   0  0  0  0  0  0  0  0  0  0  0  0
   -2.1876    2.5699    0.5263 C   0  0  0  0  0  0  0  0  0  0  0  0
   -1.8181    2.8188    1.9741 C   0  0  0  0  0  0  0  0  0  0  0  0
    5.7300    1.5385   -0.0221 H   0  0  0  0  0  0  0  0  0  0  0  0
    6.1333    0.2794   -1.1956 H   0  0  0  0  0  0  0  0  0  0  0  0
    5.9754    1.9636   -1.7234 H   0  0  0  0  0  0  0  0  0  0  0  0
    3.9530    0.6687   -2.3635 H   0  0  0  0  0  0  0  0  0  0  0  0
    3.5336    1.9012   -1.1453 H   0  0  0  0  0  0  0  0  0  0  0  0
    1.3267   -0.4785    2.6688 H   0  0  0  0  0  0  0  0  0  0  0  0
    2.1063   -2.0691    2.8528 H   0  0  0  0  0  0  0  0  0  0  0  0
    3.5220    0.5947    2.3046 H   0  0  0  0  0  0  0  0  0  0  0  0
    3.5416   -0.2865    3.8401 H   0  0  0  0  0  0  0  0  0  0  0  0
    4.3373   -0.9748    2.4095 H   0  0  0  0  0  0  0  0  0  0  0  0
   -0.3698   -1.8923   -0.2990 H   0  0  0  0  0  0  0  0  0  0  0  0
   -0.6471   -2.3947   -2.0078 H   0  0  0  0  0  0  0  0  0  0  0  0
   -5.5728   -1.3781   -0.3532 H   0  0  0  0  0  0  0  0  0  0  0  0
   -5.2613    0.3507   -0.0256 H   0  0  0  0  0  0  0  0  0  0  0  0
   -4.2944   -1.1573   -2.5082 H   0  0  0  0  0  0  0  0  0  0  0  0
   -5.6872   -0.0657   -2.4550 H   0  0  0  0  0  0  0  0  0  0  0  0
   -4.0559    0.5635   -2.1815 H   0  0  0  0  0  0  0  0  0  0  0  0
   -1.2924    2.5260   -0.0985 H   0  0  0  0  0  0  0  0  0  0  0  0
   -2.8628    3.3408    0.1501 H   0  0  0  0  0  0  0  0  0  0  0  0
   -1.1286    2.0518    2.3207 H   0  0  0  0  0  0  0  0  0  0  0  0
   -1.3295    3.7840    2.0557 H   0  0  0  0  0  0  0  0  0  0  0  0
   -2.7063    2.8036    2.5999 H   0  0  0  0  0  0  0  0  0  0  0  0
  1  2  1  0  0  0  0
  2  3  1  0  0  0  0
  3  4  2  0  0  0  0
  4  5  2  0  0  0  0
  4  6  2  0  0  0  0
  6  7  1  0  0  0  0
  7  8  1  0  0  0  0
  4  9  1  0  0  0  0
  9 10  1  0  0  0  0
 10 11  1  0  0  0  0
 11 12  1  0  0  0  0
 12 13  2  0  0  0  0
 12 14  2  0  0  0  0
 14 15  1  0  0  0  0
 15 16  1  0  0  0  0
 12 17  2  0  0  0  0
 17 18  1  0  0  0  0
 18 19  1  0  0  0  0
  1 20  1  0  0  0  0
  1 21  1  0  0  0  0
  1 22  1  0  0  0  0
  2 23  1  0  0  0  0
  2 24  1  0  0  0  0
  7 25  1  0  0  0  0
  7 26  1  0  0  0  0
  8 27  1  0  0  0  0
  8 28  1  0  0  0  0
  8 29  1  0  0  0  0
 10 30  1  0  0  0  0
 10 31  1  0  0  0  0
 15 32  1  0  0  0  0
 15 33  1  0  0  0  0
 16 34  1  0  0  0  0
 16 35  1  0  0  0  0
 16 36  1  0  0  0  0
 18 37  1  0  0  0  0
 18 38  1  0  0  0  0
 19 39  1  0  0  0  0
 19 40  1  0  0  0  0
 19 41  1  0  0  0  0
M  END
