 xtb: 6.7.1 (edcfbbe)
          04092505213D

 41 40  0     0  0            999 V2000
    4.1682    0.7936   -1.8763 C   0  0  0  0  0  0  0  0  0  0  0  0
    4.3007   -0.0741   -0.6400 C   0  0  0  0  0  0  0  0  0  0  0  0
    3.3444    0.3188    0.3747 O   0  0  0  0  0  0  0  0  0  0  0  0
    2.0606   -0.5493    0.7384 P   0  0  0  0  0  0  0  0  0  0  0  0
    1.2468    0.1073    2.3858 S   0  0  0  0  0  0  0  0  0  0  0  0
    2.4970   -2.0828    0.7412 O   0  0  0  0  0  0  0  0  0  0  0  0
    2.8579   -2.7586    1.9628 C   0  0  0  0  0  0  0  0  0  0  0  0
    4.2316   -2.3356    2.4437 C   0  0  0  0  0  0  0  0  0  0  0  0
    0.9167   -0.6589   -1.0425 S   0  0  0  0  0  0  0  0  0  0  0  0
    0.5348    1.1148   -1.1678 C   0  0  0  0  0  0  0  0  0  0  0  0
   -0.7837    1.6679   -0.0520 S   0  0  0  0  0  0  0  0  0  0  0  0
   -2.2962    0.3590   -0.7919 P   0  0  0  0  0  0  0  0  0  0  0  0
   -2.2569   -0.0181   -2.7067 S   0  0  0  0  0  0  0  0  0  0  0  0
   -3.6422    1.0043   -0.2441 O   0  0  0  0  0  0  0  0  0  0  0  0
   -4.3758    2.0002   -0.9818 C   0  0  0  0  0  0  0  0  0  0  0  0
   -3.6130    3.3022   -1.1129 C   0  0  0  0  0  0  0  0  0  0  0  0
   -2.1652   -0.9575    0.0699 O   0  0  0  0  0  0  0  0  0  0  0  0
   -2.1872   -1.0039    1.5156 C   0  0  0  0  0  0  0  0  0  0  0  0
   -3.5889   -1.2454    2.0343 C   0  0  0  0  0  0  0  0  0  0  0  0
    4.9913    0.5730   -2.5488 H   0  0  0  0  0  0  0  0  0  0  0  0
    3.2322    0.5929   -2.3919 H   0  0  0  0  0  0  0  0  0  0  0  0
    4.2080    1.8443   -1.6014 H   0  0  0  0  0  0  0  0  0  0  0  0
    5.2747    0.0647   -0.1673 H   0  0  0  0  0  0  0  0  0  0  0  0
    4.1525   -1.1297   -0.8817 H   0  0  0  0  0  0  0  0  0  0  0  0
    2.1013   -2.5365    2.7219 H   0  0  0  0  0  0  0  0  0  0  0  0
    2.8247   -3.8170    1.7013 H   0  0  0  0  0  0  0  0  0  0  0  0
    4.2263   -1.2712    2.6772 H   0  0  0  0  0  0  0  0  0  0  0  0
    4.4843   -2.8914    3.3412 H   0  0  0  0  0  0  0  0  0  0  0  0
    4.9793   -2.5292    1.6789 H   0  0  0  0  0  0  0  0  0  0  0  0
    0.2185    1.2785   -2.1975 H   0  0  0  0  0  0  0  0  0  0  0  0
    1.4132    1.7071   -0.9186 H   0  0  0  0  0  0  0  0  0  0  0  0
   -4.6101    1.5907   -1.9690 H   0  0  0  0  0  0  0  0  0  0  0  0
   -5.2926    2.1270   -0.4043 H   0  0  0  0  0  0  0  0  0  0  0  0
   -2.7478    3.1633   -1.7591 H   0  0  0  0  0  0  0  0  0  0  0  0
   -4.2620    4.0533   -1.5513 H   0  0  0  0  0  0  0  0  0  0  0  0
   -3.2724    3.6425   -0.1380 H   0  0  0  0  0  0  0  0  0  0  0  0
   -1.5203   -1.8314    1.7686 H   0  0  0  0  0  0  0  0  0  0  0  0
   -1.7693   -0.0741    1.9139 H   0  0  0  0  0  0  0  0  0  0  0  0
   -3.5481   -1.3636    3.1126 H   0  0  0  0  0  0  0  0  0  0  0  0
   -4.2320   -0.4049    1.7889 H   0  0  0  0  0  0  0  0  0  0  0  0
   -3.9995   -2.1468    1.5873 H   0  0  0  0  0  0  0  0  0  0  0  0
  1  2  1  0  0  0  0
  2  3  1  0  0  0  0
  3  4  2  0  0  0  0
  4  5  2  0  0  0  0
  4  6  1  0  0  0  0
  6  7  1  0  0  0  0
  7  8  1  0  0  0  0
  4  9  1  0  0  0  0
  9 10  1  0  0  0  0
 10 11  1  0  0  0  0
 11 12  1  0  0  0  0
 12 13  2  0  0  0  0
 12 14  2  0  0  0  0
 14 15  1  0  0  0  0
 15 16  1  0  0  0  0
 12 17  2  0  0  0  0
 17 18  1  0  0  0  0
 18 19  1  0  0  0  0
  1 20  1  0  0  0  0
  1 21  1  0  0  0  0
  1 22  1  0  0  0  0
  2 23  1  0  0  0  0
  2 24  1  0  0  0  0
  7 25  1  0  0  0  0
  7 26  1  0  0  0  0
  8 27  1  0  0  0  0
  8 28  1  0  0  0  0
  8 29  1  0  0  0  0
 10 30  1  0  0  0  0
 10 31  1  0  0  0  0
 15 32  1  0  0  0  0
 15 33  1  0  0  0  0
 16 34  1  0  0  0  0
 16 35  1  0  0  0  0
 16 36  1  0  0  0  0
 18 37  1  0  0  0  0
 18 38  1  0  0  0  0
 19 39  1  0  0  0  0
 19 40  1  0  0  0  0
 19 41  1  0  0  0  0
M  END
