 xtb: 6.7.1 (edcfbbe)
          04032519423D

 20 20  0     0  0            999 V2000
    0.8553    1.3799   -0.5797 C   0  0  0  0  0  0  0  0  0  0  0  0
    1.5891    0.1402   -0.0530 C   0  0  0  0  0  0  0  0  0  0  0  0
    2.5338    0.0535   -0.6038 H   0  0  0  0  0  0  0  0  0  0  0  0
    0.7501   -1.1247   -0.3383 C   0  0  0  0  0  0  0  0  0  0  0  0
    1.1840   -1.9693    0.2193 H   0  0  0  0  0  0  0  0  0  0  0  0
   -0.6916   -0.9090    0.1655 C   0  0  0  0  0  0  0  0  0  0  0  0
   -1.3324   -1.7477   -0.1275 H   0  0  0  0  0  0  0  0  0  0  0  0
   -1.2639    0.3828   -0.4568 C   0  0  0  0  0  0  0  0  0  0  0  0
   -1.2762    0.2954   -1.5551 H   0  0  0  0  0  0  0  0  0  0  0  0
   -0.4583    1.4838   -0.0755 O   0  0  0  0  0  0  0  0  0  0  0  0
   -2.5603    0.6205   -0.0552 O   0  0  0  0  0  0  0  0  0  0  0  0
   -0.7502   -0.8436    1.5678 O   0  0  0  0  0  0  0  0  0  0  0  0
    0.8024   -1.3557   -1.7238 O   0  0  0  0  0  0  0  0  0  0  0  0
    1.8136    0.3097    1.3287 O   0  0  0  0  0  0  0  0  0  0  0  0
    0.8366    1.3362   -1.6760 H   0  0  0  0  0  0  0  0  0  0  0  0
    1.3655    2.2817   -0.2415 H   0  0  0  0  0  0  0  0  0  0  0  0
   -2.5969    0.5871    0.9163 H   0  0  0  0  0  0  0  0  0  0  0  0
   -0.1152   -0.1660    1.8655 H   0  0  0  0  0  0  0  0  0  0  0  0
    0.4315   -2.2257   -1.9292 H   0  0  0  0  0  0  0  0  0  0  0  0
    2.5024   -0.2974    1.6335 H   0  0  0  0  0  0  0  0  0  0  0  0
  1  2  1  0  0  0  0
  2  3  1  0  0  0  0
  2  4  1  0  0  0  0
  4  5  1  0  0  0  0
  4  6  1  0  0  0  0
  6  7  1  0  0  0  0
  6  8  1  0  0  0  0
  8  9  1  0  0  0  0
  1 10  1  0  0  0  0
  8 10  1  0  0  0  0
  8 11  1  0  0  0  0
  6 12  1  0  0  0  0
  4 13  1  0  0  0  0
  2 14  1  0  0  0  0
  1 15  1  0  0  0  0
  1 16  1  0  0  0  0
 11 17  1  0  0  0  0
 12 18  1  0  0  0  0
 13 19  1  0  0  0  0
 14 20  1  0  0  0  0
M  END
