 xtb: 6.7.1 (edcfbbe)
          04092505213D

 41 40  0     0  0            999 V2000
    5.6989   -1.0780   -0.0970 C   0  0  0  0  0  0  0  0  0  0  0  0
    4.9032   -0.7409   -1.3408 C   0  0  0  0  0  0  0  0  0  0  0  0
    3.4990   -1.0333   -1.1855 O   0  0  0  0  0  0  0  0  0  0  0  0
    2.5693   -0.2225   -0.1922 P   0  0  0  0  0  0  0  0  0  0  0  0
    2.9440    1.6998   -0.0452 S   0  0  0  0  0  0  0  0  0  0  0  0
    2.7354   -1.0499    1.1562 O   0  0  0  0  0  0  0  0  0  0  0  0
    2.3605   -0.5273    2.4415 C   0  0  0  0  0  0  0  0  0  0  0  0
    0.8591   -0.3850    2.5846 C   0  0  0  0  0  0  0  0  0  0  0  0
    0.7081   -0.8240   -1.0091 S   0  0  0  0  0  0  0  0  0  0  0  0
    0.0524    0.8064   -1.4663 C   0  0  0  0  0  0  0  0  0  0  0  0
   -0.9457    1.5789   -0.1670 S   0  0  0  0  0  0  0  0  0  0  0  0
   -2.5865    0.2561   -0.3262 P   0  0  0  0  0  0  0  0  0  0  0  0
   -3.1413   -0.2342   -2.1335 S   0  0  0  0  0  0  0  0  0  0  0  0
   -3.7623    0.9465    0.4780 O   0  0  0  0  0  0  0  0  0  0  0  0
   -3.6690    1.3018    1.8813 C   0  0  0  0  0  0  0  0  0  0  0  0
   -3.3390    2.7717    2.0444 C   0  0  0  0  0  0  0  0  0  0  0  0
   -2.0522   -0.9450    0.5877 O   0  0  0  0  0  0  0  0  0  0  0  0
   -2.4476   -2.3083    0.3555 C   0  0  0  0  0  0  0  0  0  0  0  0
   -3.8733   -2.5507    0.8078 C   0  0  0  0  0  0  0  0  0  0  0  0
    5.5038   -2.1033    0.2063 H   0  0  0  0  0  0  0  0  0  0  0  0
    6.7575   -0.9566   -0.3046 H   0  0  0  0  0  0  0  0  0  0  0  0
    5.4192   -0.4099    0.7162 H   0  0  0  0  0  0  0  0  0  0  0  0
    5.2026   -1.3545   -2.1915 H   0  0  0  0  0  0  0  0  0  0  0  0
    5.0090    0.3196   -1.5912 H   0  0  0  0  0  0  0  0  0  0  0  0
    2.7658   -1.2534    3.1478 H   0  0  0  0  0  0  0  0  0  0  0  0
    2.8505    0.4421    2.5787 H   0  0  0  0  0  0  0  0  0  0  0  0
    0.4933    0.3945    1.9170 H   0  0  0  0  0  0  0  0  0  0  0  0
    0.3640   -1.3204    2.3351 H   0  0  0  0  0  0  0  0  0  0  0  0
    0.6189   -0.1100    3.6066 H   0  0  0  0  0  0  0  0  0  0  0  0
   -0.5728    0.6611   -2.3470 H   0  0  0  0  0  0  0  0  0  0  0  0
    0.8761    1.4906   -1.6670 H   0  0  0  0  0  0  0  0  0  0  0  0
   -4.6579    1.0732    2.2823 H   0  0  0  0  0  0  0  0  0  0  0  0
   -2.9169    0.6698    2.3591 H   0  0  0  0  0  0  0  0  0  0  0  0
   -2.3486    2.9884    1.6492 H   0  0  0  0  0  0  0  0  0  0  0  0
   -4.0670    3.3774    1.5119 H   0  0  0  0  0  0  0  0  0  0  0  0
   -3.3643    3.0257    3.0994 H   0  0  0  0  0  0  0  0  0  0  0  0
   -2.3354   -2.5279   -0.7108 H   0  0  0  0  0  0  0  0  0  0  0  0
   -1.7305   -2.8987    0.9272 H   0  0  0  0  0  0  0  0  0  0  0  0
   -4.5517   -1.9271    0.2258 H   0  0  0  0  0  0  0  0  0  0  0  0
   -4.1301   -3.5932    0.6493 H   0  0  0  0  0  0  0  0  0  0  0  0
   -3.9846   -2.3076    1.8613 H   0  0  0  0  0  0  0  0  0  0  0  0
  1  2  1  0  0  0  0
  2  3  1  0  0  0  0
  3  4  2  0  0  0  0
  4  5  2  0  0  0  0
  4  6  2  0  0  0  0
  6  7  1  0  0  0  0
  7  8  1  0  0  0  0
  4  9  1  0  0  0  0
  9 10  1  0  0  0  0
 10 11  1  0  0  0  0
 11 12  1  0  0  0  0
 12 13  2  0  0  0  0
 12 14  2  0  0  0  0
 14 15  1  0  0  0  0
 15 16  1  0  0  0  0
 12 17  1  0  0  0  0
 17 18  1  0  0  0  0
 18 19  1  0  0  0  0
  1 20  1  0  0  0  0
  1 21  1  0  0  0  0
  1 22  1  0  0  0  0
  2 23  1  0  0  0  0
  2 24  1  0  0  0  0
  7 25  1  0  0  0  0
  7 26  1  0  0  0  0
  8 27  1  0  0  0  0
  8 28  1  0  0  0  0
  8 29  1  0  0  0  0
 10 30  1  0  0  0  0
 10 31  1  0  0  0  0
 15 32  1  0  0  0  0
 15 33  1  0  0  0  0
 16 34  1  0  0  0  0
 16 35  1  0  0  0  0
 16 36  1  0  0  0  0
 18 37  1  0  0  0  0
 18 38  1  0  0  0  0
 19 39  1  0  0  0  0
 19 40  1  0  0  0  0
 19 41  1  0  0  0  0
M  END
