 xtb: 6.7.1 (edcfbbe)
          04092505203D

 41 40  0     0  0            999 V2000
    3.6575    0.0952   -2.6521 C   0  0  0  0  0  0  0  0  0  0  0  0
    2.2657    0.1021   -2.0569 C   0  0  0  0  0  0  0  0  0  0  0  0
    2.2753    0.6965   -0.7366 O   0  0  0  0  0  0  0  0  0  0  0  0
    2.3581   -0.1396    0.5990 P   0  0  0  0  0  0  0  0  0  0  0  0
    2.6887    0.9979    2.1513 S   0  0  0  0  0  0  0  0  0  0  0  0
    3.4816   -1.2145    0.2707 O   0  0  0  0  0  0  0  0  0  0  0  0
    4.1749   -1.9452    1.3004 C   0  0  0  0  0  0  0  0  0  0  0  0
    3.2611   -2.8782    2.0676 C   0  0  0  0  0  0  0  0  0  0  0  0
    0.5639   -1.2980    0.6622 S   0  0  0  0  0  0  0  0  0  0  0  0
   -0.3923   -0.1555    1.6853 C   0  0  0  0  0  0  0  0  0  0  0  0
   -0.8717    1.3758    0.8325 S   0  0  0  0  0  0  0  0  0  0  0  0
   -2.0463    0.5352   -0.7257 P   0  0  0  0  0  0  0  0  0  0  0  0
   -1.1961   -0.1564   -2.3425 S   0  0  0  0  0  0  0  0  0  0  0  0
   -3.0038    1.7285   -1.1345 O   0  0  0  0  0  0  0  0  0  0  0  0
   -3.6326    2.6889   -0.2548 C   0  0  0  0  0  0  0  0  0  0  0  0
   -4.5850    2.0413    0.7279 C   0  0  0  0  0  0  0  0  0  0  0  0
   -2.8811   -0.5436    0.1042 O   0  0  0  0  0  0  0  0  0  0  0  0
   -3.2911   -1.8006   -0.4656 C   0  0  0  0  0  0  0  0  0  0  0  0
   -4.5166   -1.6229   -1.3379 C   0  0  0  0  0  0  0  0  0  0  0  0
    4.0625    1.1036   -2.6575 H   0  0  0  0  0  0  0  0  0  0  0  0
    4.3148   -0.5463   -2.0714 H   0  0  0  0  0  0  0  0  0  0  0  0
    3.6006   -0.2750   -3.6709 H   0  0  0  0  0  0  0  0  0  0  0  0
    1.8500   -0.9073   -1.9940 H   0  0  0  0  0  0  0  0  0  0  0  0
    1.5846    0.7277   -2.6376 H   0  0  0  0  0  0  0  0  0  0  0  0
    4.9429   -2.4945    0.7540 H   0  0  0  0  0  0  0  0  0  0  0  0
    4.6421   -1.2228    1.9764 H   0  0  0  0  0  0  0  0  0  0  0  0
    2.5564   -2.3021    2.6651 H   0  0  0  0  0  0  0  0  0  0  0  0
    2.7055   -3.5141    1.3828 H   0  0  0  0  0  0  0  0  0  0  0  0
    3.8589   -3.4965    2.7296 H   0  0  0  0  0  0  0  0  0  0  0  0
    0.2157    0.1674    2.5318 H   0  0  0  0  0  0  0  0  0  0  0  0
   -1.2814   -0.6876    2.0113 H   0  0  0  0  0  0  0  0  0  0  0  0
   -2.8483    3.2435    0.2664 H   0  0  0  0  0  0  0  0  0  0  0  0
   -4.1558    3.3530   -0.9450 H   0  0  0  0  0  0  0  0  0  0  0  0
   -4.0402    1.3933    1.4108 H   0  0  0  0  0  0  0  0  0  0  0  0
   -5.0841    2.8178    1.2994 H   0  0  0  0  0  0  0  0  0  0  0  0
   -5.3295    1.4531    0.1977 H   0  0  0  0  0  0  0  0  0  0  0  0
   -2.4599   -2.2130   -1.0461 H   0  0  0  0  0  0  0  0  0  0  0  0
   -3.4933   -2.4368    0.3969 H   0  0  0  0  0  0  0  0  0  0  0  0
   -4.8136   -2.5845   -1.7438 H   0  0  0  0  0  0  0  0  0  0  0  0
   -5.3372   -1.2069   -0.7596 H   0  0  0  0  0  0  0  0  0  0  0  0
   -4.2835   -0.9472   -2.1604 H   0  0  0  0  0  0  0  0  0  0  0  0
  1  2  1  0  0  0  0
  2  3  1  0  0  0  0
  3  4  2  0  0  0  0
  4  5  2  0  0  0  0
  4  6  2  0  0  0  0
  6  7  1  0  0  0  0
  7  8  1  0  0  0  0
  4  9  1  0  0  0  0
  9 10  1  0  0  0  0
 10 11  1  0  0  0  0
 11 12  1  0  0  0  0
 12 13  2  0  0  0  0
 12 14  2  0  0  0  0
 14 15  1  0  0  0  0
 15 16  1  0  0  0  0
 12 17  1  0  0  0  0
 17 18  1  0  0  0  0
 18 19  1  0  0  0  0
  1 20  1  0  0  0  0
  1 21  1  0  0  0  0
  1 22  1  0  0  0  0
  2 23  1  0  0  0  0
  2 24  1  0  0  0  0
  7 25  1  0  0  0  0
  7 26  1  0  0  0  0
  8 27  1  0  0  0  0
  8 28  1  0  0  0  0
  8 29  1  0  0  0  0
 10 30  1  0  0  0  0
 10 31  1  0  0  0  0
 15 32  1  0  0  0  0
 15 33  1  0  0  0  0
 16 34  1  0  0  0  0
 16 35  1  0  0  0  0
 16 36  1  0  0  0  0
 18 37  1  0  0  0  0
 18 38  1  0  0  0  0
 19 39  1  0  0  0  0
 19 40  1  0  0  0  0
 19 41  1  0  0  0  0
M  END
