 xtb: 6.7.1 (edcfbbe)
          04092505213D

 41 40  0     0  0            999 V2000
    2.1360   -0.5816   -3.0869 C   0  0  0  0  0  0  0  0  0  0  0  0
    2.7169    0.5154   -2.2176 C   0  0  0  0  0  0  0  0  0  0  0  0
    3.1295   -0.0104   -0.9415 O   0  0  0  0  0  0  0  0  0  0  0  0
    2.2634    0.0791    0.3850 P   0  0  0  0  0  0  0  0  0  0  0  0
    1.6689    1.8678    0.9046 S   0  0  0  0  0  0  0  0  0  0  0  0
    3.2519   -0.4985    1.4655 O   0  0  0  0  0  0  0  0  0  0  0  0
    4.0208   -1.7220    1.3069 C   0  0  0  0  0  0  0  0  0  0  0  0
    3.4561   -2.8246    2.1807 C   0  0  0  0  0  0  0  0  0  0  0  0
    0.8015   -1.4599    0.1192 S   0  0  0  0  0  0  0  0  0  0  0  0
   -0.0311   -1.3003    1.7122 C   0  0  0  0  0  0  0  0  0  0  0  0
   -1.1534    0.1386    1.8641 S   0  0  0  0  0  0  0  0  0  0  0  0
   -1.9255    0.2646   -0.1010 P   0  0  0  0  0  0  0  0  0  0  0  0
   -0.8760    1.0247   -1.5805 S   0  0  0  0  0  0  0  0  0  0  0  0
   -3.2704    1.0704    0.1616 O   0  0  0  0  0  0  0  0  0  0  0  0
   -3.3178    2.5071    0.2301 C   0  0  0  0  0  0  0  0  0  0  0  0
   -4.7387    2.9433   -0.0657 C   0  0  0  0  0  0  0  0  0  0  0  0
   -2.4328   -1.2178   -0.2875 O   0  0  0  0  0  0  0  0  0  0  0  0
   -2.6750   -1.7894   -1.5920 C   0  0  0  0  0  0  0  0  0  0  0  0
   -3.9037   -1.1879   -2.2392 C   0  0  0  0  0  0  0  0  0  0  0  0
    1.9072   -0.1710   -4.0648 H   0  0  0  0  0  0  0  0  0  0  0  0
    2.8471   -1.3960   -3.1901 H   0  0  0  0  0  0  0  0  0  0  0  0
    1.2173   -0.9635   -2.6472 H   0  0  0  0  0  0  0  0  0  0  0  0
    1.9917    1.3200   -2.0610 H   0  0  0  0  0  0  0  0  0  0  0  0
    3.6287    0.9279   -2.6531 H   0  0  0  0  0  0  0  0  0  0  0  0
    4.0260   -2.0071    0.2541 H   0  0  0  0  0  0  0  0  0  0  0  0
    5.0301   -1.4483    1.6181 H   0  0  0  0  0  0  0  0  0  0  0  0
    3.3664   -2.4780    3.2067 H   0  0  0  0  0  0  0  0  0  0  0  0
    2.4794   -3.1393    1.8220 H   0  0  0  0  0  0  0  0  0  0  0  0
    4.1317   -3.6737    2.1517 H   0  0  0  0  0  0  0  0  0  0  0  0
    0.7052   -1.1840    2.5064 H   0  0  0  0  0  0  0  0  0  0  0  0
   -0.6179   -2.2066    1.8427 H   0  0  0  0  0  0  0  0  0  0  0  0
   -3.0056    2.8114    1.2334 H   0  0  0  0  0  0  0  0  0  0  0  0
   -2.6102    2.9184   -0.4989 H   0  0  0  0  0  0  0  0  0  0  0  0
   -5.0205    2.6455   -1.0717 H   0  0  0  0  0  0  0  0  0  0  0  0
   -5.4201    2.4827    0.6435 H   0  0  0  0  0  0  0  0  0  0  0  0
   -4.8032    4.0230    0.0201 H   0  0  0  0  0  0  0  0  0  0  0  0
   -1.7890   -1.6239   -2.2129 H   0  0  0  0  0  0  0  0  0  0  0  0
   -2.7967   -2.8542   -1.3909 H   0  0  0  0  0  0  0  0  0  0  0  0
   -3.7308   -0.1313   -2.4404 H   0  0  0  0  0  0  0  0  0  0  0  0
   -4.1056   -1.6978   -3.1758 H   0  0  0  0  0  0  0  0  0  0  0  0
   -4.7615   -1.2837   -1.5791 H   0  0  0  0  0  0  0  0  0  0  0  0
  1  2  1  0  0  0  0
  2  3  1  0  0  0  0
  3  4  2  0  0  0  0
  4  5  2  0  0  0  0
  4  6  2  0  0  0  0
  6  7  1  0  0  0  0
  7  8  1  0  0  0  0
  4  9  1  0  0  0  0
  9 10  1  0  0  0  0
 10 11  1  0  0  0  0
 11 12  1  0  0  0  0
 12 13  2  0  0  0  0
 12 14  2  0  0  0  0
 14 15  1  0  0  0  0
 15 16  1  0  0  0  0
 12 17  2  0  0  0  0
 17 18  1  0  0  0  0
 18 19  1  0  0  0  0
  1 20  1  0  0  0  0
  1 21  1  0  0  0  0
  1 22  1  0  0  0  0
  2 23  1  0  0  0  0
  2 24  1  0  0  0  0
  7 25  1  0  0  0  0
  7 26  1  0  0  0  0
  8 27  1  0  0  0  0
  8 28  1  0  0  0  0
  8 29  1  0  0  0  0
 10 30  1  0  0  0  0
 10 31  1  0  0  0  0
 15 32  1  0  0  0  0
 15 33  1  0  0  0  0
 16 34  1  0  0  0  0
 16 35  1  0  0  0  0
 16 36  1  0  0  0  0
 18 37  1  0  0  0  0
 18 38  1  0  0  0  0
 19 39  1  0  0  0  0
 19 40  1  0  0  0  0
 19 41  1  0  0  0  0
M  END
