 xtb: 6.7.1 (edcfbbe)
          04092505213D

 41 40  0     0  0            999 V2000
    3.4451    2.2205   -0.6012 C   0  0  0  0  0  0  0  0  0  0  0  0
    2.0701    2.2387    0.0316 C   0  0  0  0  0  0  0  0  0  0  0  0
    1.4526    0.9364    0.0127 O   0  0  0  0  0  0  0  0  0  0  0  0
    1.9748   -0.2626    0.9074 P   0  0  0  0  0  0  0  0  0  0  0  0
    2.5974    0.2212    2.6990 S   0  0  0  0  0  0  0  0  0  0  0  0
    3.0641   -0.9437   -0.0371 O   0  0  0  0  0  0  0  0  0  0  0  0
    4.0673   -1.8307    0.4857 C   0  0  0  0  0  0  0  0  0  0  0  0
    3.4824   -3.1619    0.9135 C   0  0  0  0  0  0  0  0  0  0  0  0
    0.2756   -1.5206    0.8078 S   0  0  0  0  0  0  0  0  0  0  0  0
    0.2170   -1.8631   -0.9755 C   0  0  0  0  0  0  0  0  0  0  0  0
   -0.2289   -0.4323   -2.0046 S   0  0  0  0  0  0  0  0  0  0  0  0
   -1.9904    0.1298   -0.9938 P   0  0  0  0  0  0  0  0  0  0  0  0
   -3.1490   -1.2869   -0.2873 S   0  0  0  0  0  0  0  0  0  0  0  0
   -2.5655    0.9937   -2.1910 O   0  0  0  0  0  0  0  0  0  0  0  0
   -3.9764    1.2290   -2.3739 C   0  0  0  0  0  0  0  0  0  0  0  0
   -4.5558    2.1000   -1.2787 C   0  0  0  0  0  0  0  0  0  0  0  0
   -1.5693    1.2499    0.0637 O   0  0  0  0  0  0  0  0  0  0  0  0
   -1.6614    1.1407    1.4904 C   0  0  0  0  0  0  0  0  0  0  0  0
   -2.3603    2.3674    2.0427 C   0  0  0  0  0  0  0  0  0  0  0  0
    3.3943    1.7783   -1.5929 H   0  0  0  0  0  0  0  0  0  0  0  0
    3.8187    3.2370   -0.6762 H   0  0  0  0  0  0  0  0  0  0  0  0
    4.1286    1.6367    0.0135 H   0  0  0  0  0  0  0  0  0  0  0  0
    1.3722    2.8623   -0.5297 H   0  0  0  0  0  0  0  0  0  0  0  0
    2.1244    2.5796    1.0709 H   0  0  0  0  0  0  0  0  0  0  0  0
    4.7757   -1.9442   -0.3359 H   0  0  0  0  0  0  0  0  0  0  0  0
    4.5541   -1.3399    1.3345 H   0  0  0  0  0  0  0  0  0  0  0  0
    2.7720   -3.0106    1.7262 H   0  0  0  0  0  0  0  0  0  0  0  0
    2.9708   -3.6442    0.0846 H   0  0  0  0  0  0  0  0  0  0  0  0
    4.2814   -3.8080    1.2630 H   0  0  0  0  0  0  0  0  0  0  0  0
   -0.5374   -2.6408   -1.0857 H   0  0  0  0  0  0  0  0  0  0  0  0
    1.1898   -2.1996   -1.3245 H   0  0  0  0  0  0  0  0  0  0  0  0
   -4.0340    1.7119   -3.3504 H   0  0  0  0  0  0  0  0  0  0  0  0
   -4.4866    0.2614   -2.4056 H   0  0  0  0  0  0  0  0  0  0  0  0
   -3.9797    3.0168   -1.1822 H   0  0  0  0  0  0  0  0  0  0  0  0
   -5.5864    2.3429   -1.5181 H   0  0  0  0  0  0  0  0  0  0  0  0
   -4.5315    1.5611   -0.3321 H   0  0  0  0  0  0  0  0  0  0  0  0
   -2.2024    0.2221    1.7449 H   0  0  0  0  0  0  0  0  0  0  0  0
   -0.6406    1.0665    1.8805 H   0  0  0  0  0  0  0  0  0  0  0  0
   -2.3404    2.3228    3.1268 H   0  0  0  0  0  0  0  0  0  0  0  0
   -1.8486    3.2663    1.7110 H   0  0  0  0  0  0  0  0  0  0  0  0
   -3.3925    2.4019    1.7055 H   0  0  0  0  0  0  0  0  0  0  0  0
  1  2  1  0  0  0  0
  2  3  1  0  0  0  0
  3  4  2  0  0  0  0
  4  5  2  0  0  0  0
  4  6  2  0  0  0  0
  6  7  1  0  0  0  0
  7  8  1  0  0  0  0
  4  9  1  0  0  0  0
  9 10  1  0  0  0  0
 10 11  1  0  0  0  0
 11 12  1  0  0  0  0
 12 13  2  0  0  0  0
 12 14  2  0  0  0  0
 14 15  1  0  0  0  0
 15 16  1  0  0  0  0
 12 17  2  0  0  0  0
 17 18  1  0  0  0  0
 18 19  1  0  0  0  0
  1 20  1  0  0  0  0
  1 21  1  0  0  0  0
  1 22  1  0  0  0  0
  2 23  1  0  0  0  0
  2 24  1  0  0  0  0
  7 25  1  0  0  0  0
  7 26  1  0  0  0  0
  8 27  1  0  0  0  0
  8 28  1  0  0  0  0
  8 29  1  0  0  0  0
 10 30  1  0  0  0  0
 10 31  1  0  0  0  0
 15 32  1  0  0  0  0
 15 33  1  0  0  0  0
 16 34  1  0  0  0  0
 16 35  1  0  0  0  0
 16 36  1  0  0  0  0
 18 37  1  0  0  0  0
 18 38  1  0  0  0  0
 19 39  1  0  0  0  0
 19 40  1  0  0  0  0
 19 41  1  0  0  0  0
M  END
