 xtb: 6.7.1 (edcfbbe)
          04092505203D

 41 40  0     0  0            999 V2000
    4.4465   -1.5360   -0.9713 C   0  0  0  0  0  0  0  0  0  0  0  0
    4.6089   -0.0418   -0.7815 C   0  0  0  0  0  0  0  0  0  0  0  0
    3.5481    0.5354    0.0006 O   0  0  0  0  0  0  0  0  0  0  0  0
    2.0326    0.5822   -0.4940 P   0  0  0  0  0  0  0  0  0  0  0  0
    1.8050    0.9271   -2.4040 S   0  0  0  0  0  0  0  0  0  0  0  0
    1.4585    1.7110    0.4455 O   0  0  0  0  0  0  0  0  0  0  0  0
    1.6972    1.7083    1.8768 C   0  0  0  0  0  0  0  0  0  0  0  0
    0.6895    2.6397    2.5158 C   0  0  0  0  0  0  0  0  0  0  0  0
    1.2500   -1.2549    0.2452 S   0  0  0  0  0  0  0  0  0  0  0  0
    0.0872   -1.6873   -1.0879 C   0  0  0  0  0  0  0  0  0  0  0  0
   -1.5870   -1.9968   -0.4872 S   0  0  0  0  0  0  0  0  0  0  0  0
   -2.0265   -0.0296    0.1932 P   0  0  0  0  0  0  0  0  0  0  0  0
   -1.4467    1.4471   -0.9549 S   0  0  0  0  0  0  0  0  0  0  0  0
   -1.4192    0.0560    1.6469 O   0  0  0  0  0  0  0  0  0  0  0  0
   -1.8094   -0.8732    2.6974 C   0  0  0  0  0  0  0  0  0  0  0  0
   -0.5975   -1.1740    3.5541 C   0  0  0  0  0  0  0  0  0  0  0  0
   -3.5848   -0.0891    0.5066 O   0  0  0  0  0  0  0  0  0  0  0  0
   -4.5953    0.1866   -0.4793 C   0  0  0  0  0  0  0  0  0  0  0  0
   -4.6046   -0.8340   -1.5986 C   0  0  0  0  0  0  0  0  0  0  0  0
    3.5890   -1.7366   -1.6117 H   0  0  0  0  0  0  0  0  0  0  0  0
    5.3380   -1.9323   -1.4466 H   0  0  0  0  0  0  0  0  0  0  0  0
    4.2976   -2.0273   -0.0131 H   0  0  0  0  0  0  0  0  0  0  0  0
    4.6358    0.4669   -1.7499 H   0  0  0  0  0  0  0  0  0  0  0  0
    5.5071    0.1971   -0.2103 H   0  0  0  0  0  0  0  0  0  0  0  0
    1.5865    0.6832    2.2433 H   0  0  0  0  0  0  0  0  0  0  0  0
    2.7229    2.0438    2.0425 H   0  0  0  0  0  0  0  0  0  0  0  0
    0.7904    3.6382    2.0997 H   0  0  0  0  0  0  0  0  0  0  0  0
   -0.3191    2.2844    2.3194 H   0  0  0  0  0  0  0  0  0  0  0  0
    0.8622    2.6737    3.5867 H   0  0  0  0  0  0  0  0  0  0  0  0
    0.4176   -2.6180   -1.5420 H   0  0  0  0  0  0  0  0  0  0  0  0
    0.0818   -0.8721   -1.8171 H   0  0  0  0  0  0  0  0  0  0  0  0
   -2.6001   -0.3864    3.2702 H   0  0  0  0  0  0  0  0  0  0  0  0
   -2.2044   -1.7815    2.2339 H   0  0  0  0  0  0  0  0  0  0  0  0
    0.1773   -1.6487    2.9568 H   0  0  0  0  0  0  0  0  0  0  0  0
   -0.2044   -0.2569    3.9833 H   0  0  0  0  0  0  0  0  0  0  0  0
   -0.8920   -1.8460    4.3537 H   0  0  0  0  0  0  0  0  0  0  0  0
   -5.5242    0.1670    0.0925 H   0  0  0  0  0  0  0  0  0  0  0  0
   -4.4226    1.1915   -0.8768 H   0  0  0  0  0  0  0  0  0  0  0  0
   -3.7002   -0.7378   -2.1977 H   0  0  0  0  0  0  0  0  0  0  0  0
   -4.6532   -1.8416   -1.1935 H   0  0  0  0  0  0  0  0  0  0  0  0
   -5.4657   -0.6582   -2.2354 H   0  0  0  0  0  0  0  0  0  0  0  0
  1  2  1  0  0  0  0
  2  3  1  0  0  0  0
  3  4  2  0  0  0  0
  4  5  2  0  0  0  0
  4  6  2  0  0  0  0
  6  7  1  0  0  0  0
  7  8  1  0  0  0  0
  4  9  1  0  0  0  0
  9 10  1  0  0  0  0
 10 11  1  0  0  0  0
 11 12  1  0  0  0  0
 12 13  2  0  0  0  0
 12 14  2  0  0  0  0
 14 15  1  0  0  0  0
 15 16  1  0  0  0  0
 12 17  2  0  0  0  0
 17 18  1  0  0  0  0
 18 19  1  0  0  0  0
  1 20  1  0  0  0  0
  1 21  1  0  0  0  0
  1 22  1  0  0  0  0
  2 23  1  0  0  0  0
  2 24  1  0  0  0  0
  7 25  1  0  0  0  0
  7 26  1  0  0  0  0
  8 27  1  0  0  0  0
  8 28  1  0  0  0  0
  8 29  1  0  0  0  0
 10 30  1  0  0  0  0
 10 31  1  0  0  0  0
 15 32  1  0  0  0  0
 15 33  1  0  0  0  0
 16 34  1  0  0  0  0
 16 35  1  0  0  0  0
 16 36  1  0  0  0  0
 18 37  1  0  0  0  0
 18 38  1  0  0  0  0
 19 39  1  0  0  0  0
 19 40  1  0  0  0  0
 19 41  1  0  0  0  0
M  END
