 xtb: 6.7.1 (edcfbbe)
          04032520443D

 10  9  0     0  0            999 V2000
    1.8755    0.0763    0.1902 C   0  0  0  0  0  0  0  0  0  0  0  0
    0.6878    0.2109   -0.3674 C   0  0  0  0  0  0  0  0  0  0  0  0
   -0.5289   -0.5665    0.0328 C   0  0  0  0  0  0  0  0  0  0  0  0
   -1.6393    0.3130    0.0902 O   0  0  0  0  0  0  0  0  0  0  0  0
    2.7247    0.6458   -0.1439 H   0  0  0  0  0  0  0  0  0  0  0  0
    2.0478   -0.6178    0.9959 H   0  0  0  0  0  0  0  0  0  0  0  0
    0.5162    0.9168   -1.1676 H   0  0  0  0  0  0  0  0  0  0  0  0
   -0.3670   -1.0495    1.0051 H   0  0  0  0  0  0  0  0  0  0  0  0
   -0.7115   -1.3474   -0.7219 H   0  0  0  0  0  0  0  0  0  0  0  0
   -2.4316   -0.1889    0.3220 H   0  0  0  0  0  0  0  0  0  0  0  0
  1  2  2  0  0  0  0
  2  3  1  0  0  0  0
  3  4  1  0  0  0  0
  1  5  1  0  0  0  0
  1  6  1  0  0  0  0
  2  7  1  0  0  0  0
  3  8  1  0  0  0  0
  3  9  1  0  0  0  0
  4 10  1  0  0  0  0
M  END
