 xtb: 6.7.1 (edcfbbe)
          04092505213D

 41 40  0     0  0            999 V2000
    2.0836    2.5497   -1.7305 C   0  0  0  0  0  0  0  0  0  0  0  0
    1.7237    1.0814   -1.6511 C   0  0  0  0  0  0  0  0  0  0  0  0
    1.1383    0.7696   -0.3664 O   0  0  0  0  0  0  0  0  0  0  0  0
    2.0261    0.0791    0.7539 P   0  0  0  0  0  0  0  0  0  0  0  0
    3.7632    0.8933    1.1418 S   0  0  0  0  0  0  0  0  0  0  0  0
    2.0979   -1.4278    0.2289 O   0  0  0  0  0  0  0  0  0  0  0  0
    3.1562   -2.3347    0.5948 C   0  0  0  0  0  0  0  0  0  0  0  0
    4.1585   -2.4436   -0.5372 C   0  0  0  0  0  0  0  0  0  0  0  0
    0.6660    0.0549    2.3465 S   0  0  0  0  0  0  0  0  0  0  0  0
   -0.6258   -1.0760    1.7041 C   0  0  0  0  0  0  0  0  0  0  0  0
   -2.1731   -0.2484    1.2837 S   0  0  0  0  0  0  0  0  0  0  0  0
   -1.9210   -0.0264   -0.8214 P   0  0  0  0  0  0  0  0  0  0  0  0
   -0.8236   -1.3811   -1.7077 S   0  0  0  0  0  0  0  0  0  0  0  0
   -1.4393    1.4539   -1.0857 O   0  0  0  0  0  0  0  0  0  0  0  0
   -2.1142    2.6164   -0.5425 C   0  0  0  0  0  0  0  0  0  0  0  0
   -1.3571    3.1744    0.6474 C   0  0  0  0  0  0  0  0  0  0  0  0
   -3.4258    0.0603   -1.3416 O   0  0  0  0  0  0  0  0  0  0  0  0
   -4.2007   -1.0969   -1.6985 C   0  0  0  0  0  0  0  0  0  0  0  0
   -4.5131   -1.9814   -0.5087 C   0  0  0  0  0  0  0  0  0  0  0  0
    2.8170    2.7968   -0.9653 H   0  0  0  0  0  0  0  0  0  0  0  0
    2.5052    2.7593   -2.7084 H   0  0  0  0  0  0  0  0  0  0  0  0
    1.1966    3.1594   -1.5839 H   0  0  0  0  0  0  0  0  0  0  0  0
    2.6027    0.4493   -1.8041 H   0  0  0  0  0  0  0  0  0  0  0  0
    0.9582    0.8135   -2.3825 H   0  0  0  0  0  0  0  0  0  0  0  0
    3.6404   -1.9759    1.5075 H   0  0  0  0  0  0  0  0  0  0  0  0
    2.6623   -3.2890    0.7846 H   0  0  0  0  0  0  0  0  0  0  0  0
    4.6619   -1.4894   -0.6813 H   0  0  0  0  0  0  0  0  0  0  0  0
    4.8973   -3.1989   -0.2902 H   0  0  0  0  0  0  0  0  0  0  0  0
    3.6508   -2.7208   -1.4573 H   0  0  0  0  0  0  0  0  0  0  0  0
   -0.8502   -1.7694    2.5097 H   0  0  0  0  0  0  0  0  0  0  0  0
   -0.2458   -1.5910    0.8196 H   0  0  0  0  0  0  0  0  0  0  0  0
   -2.1322    3.3297   -1.3683 H   0  0  0  0  0  0  0  0  0  0  0  0
   -3.1362    2.3444   -0.2709 H   0  0  0  0  0  0  0  0  0  0  0  0
   -0.3133    3.3353    0.3891 H   0  0  0  0  0  0  0  0  0  0  0  0
   -1.8020    4.1211    0.9375 H   0  0  0  0  0  0  0  0  0  0  0  0
   -1.3996    2.4926    1.4938 H   0  0  0  0  0  0  0  0  0  0  0  0
   -5.1073   -0.6743   -2.1340 H   0  0  0  0  0  0  0  0  0  0  0  0
   -3.6498   -1.6576   -2.4600 H   0  0  0  0  0  0  0  0  0  0  0  0
   -3.6042   -2.4606   -0.1494 H   0  0  0  0  0  0  0  0  0  0  0  0
   -4.9449   -1.3946    0.2979 H   0  0  0  0  0  0  0  0  0  0  0  0
   -5.2171   -2.7494   -0.8130 H   0  0  0  0  0  0  0  0  0  0  0  0
  1  2  1  0  0  0  0
  2  3  1  0  0  0  0
  3  4  1  0  0  0  0
  4  5  2  0  0  0  0
  4  6  2  0  0  0  0
  6  7  1  0  0  0  0
  7  8  1  0  0  0  0
  4  9  1  0  0  0  0
  9 10  1  0  0  0  0
 10 11  1  0  0  0  0
 11 12  1  0  0  0  0
 12 13  2  0  0  0  0
 12 14  2  0  0  0  0
 14 15  1  0  0  0  0
 15 16  1  0  0  0  0
 12 17  2  0  0  0  0
 17 18  1  0  0  0  0
 18 19  1  0  0  0  0
  1 20  1  0  0  0  0
  1 21  1  0  0  0  0
  1 22  1  0  0  0  0
  2 23  1  0  0  0  0
  2 24  1  0  0  0  0
  7 25  1  0  0  0  0
  7 26  1  0  0  0  0
  8 27  1  0  0  0  0
  8 28  1  0  0  0  0
  8 29  1  0  0  0  0
 10 30  1  0  0  0  0
 10 31  1  0  0  0  0
 15 32  1  0  0  0  0
 15 33  1  0  0  0  0
 16 34  1  0  0  0  0
 16 35  1  0  0  0  0
 16 36  1  0  0  0  0
 18 37  1  0  0  0  0
 18 38  1  0  0  0  0
 19 39  1  0  0  0  0
 19 40  1  0  0  0  0
 19 41  1  0  0  0  0
M  END
