 xtb: 6.7.1 (edcfbbe)
          04092505213D

 41 40  0     0  0            999 V2000
    1.5849    2.6862   -1.3047 C   0  0  0  0  0  0  0  0  0  0  0  0
    2.0405    2.4459    0.1228 C   0  0  0  0  0  0  0  0  0  0  0  0
    3.0163    1.3847    0.1530 O   0  0  0  0  0  0  0  0  0  0  0  0
    2.7032   -0.0255    0.8004 P   0  0  0  0  0  0  0  0  0  0  0  0
    2.3647   -0.0339    2.7364 S   0  0  0  0  0  0  0  0  0  0  0  0
    4.0503   -0.7045    0.3319 O   0  0  0  0  0  0  0  0  0  0  0  0
    4.5688   -1.8829    0.9732 C   0  0  0  0  0  0  0  0  0  0  0  0
    3.7067   -3.1020    0.7111 C   0  0  0  0  0  0  0  0  0  0  0  0
    1.1641   -0.8836   -0.4107 S   0  0  0  0  0  0  0  0  0  0  0  0
   -0.0922   -1.1907    0.8617 C   0  0  0  0  0  0  0  0  0  0  0  0
   -1.2978    0.1485    1.0001 S   0  0  0  0  0  0  0  0  0  0  0  0
   -2.2257   -0.0976   -0.9142 P   0  0  0  0  0  0  0  0  0  0  0  0
   -1.9743   -1.8704   -1.7096 S   0  0  0  0  0  0  0  0  0  0  0  0
   -1.7059    1.0627   -1.8429 O   0  0  0  0  0  0  0  0  0  0  0  0
   -2.2054    2.4259   -1.8465 C   0  0  0  0  0  0  0  0  0  0  0  0
   -2.1112    3.0957   -0.4921 C   0  0  0  0  0  0  0  0  0  0  0  0
   -3.7385    0.3161   -0.6614 O   0  0  0  0  0  0  0  0  0  0  0  0
   -4.6374   -0.5602    0.0482 C   0  0  0  0  0  0  0  0  0  0  0  0
   -6.0531   -0.0992   -0.2330 C   0  0  0  0  0  0  0  0  0  0  0  0
    0.9883    3.5921   -1.3448 H   0  0  0  0  0  0  0  0  0  0  0  0
    2.4541    2.8036   -1.9457 H   0  0  0  0  0  0  0  0  0  0  0  0
    0.9959    1.8468   -1.6698 H   0  0  0  0  0  0  0  0  0  0  0  0
    1.2018    2.1930    0.7819 H   0  0  0  0  0  0  0  0  0  0  0  0
    2.5542    3.3222    0.5242 H   0  0  0  0  0  0  0  0  0  0  0  0
    5.5656   -1.9959    0.5445 H   0  0  0  0  0  0  0  0  0  0  0  0
    4.6465   -1.6900    2.0481 H   0  0  0  0  0  0  0  0  0  0  0  0
    2.7444   -2.9928    1.2102 H   0  0  0  0  0  0  0  0  0  0  0  0
    3.5369   -3.2227   -0.3561 H   0  0  0  0  0  0  0  0  0  0  0  0
    4.2044   -3.9851    1.0987 H   0  0  0  0  0  0  0  0  0  0  0  0
    0.3887   -1.2715    1.8384 H   0  0  0  0  0  0  0  0  0  0  0  0
   -0.6048   -2.1089    0.5802 H   0  0  0  0  0  0  0  0  0  0  0  0
   -1.5722    2.9179   -2.5864 H   0  0  0  0  0  0  0  0  0  0  0  0
   -3.2385    2.4030   -2.1970 H   0  0  0  0  0  0  0  0  0  0  0  0
   -2.4376    4.1267   -0.5872 H   0  0  0  0  0  0  0  0  0  0  0  0
   -2.7500    2.5878    0.2275 H   0  0  0  0  0  0  0  0  0  0  0  0
   -1.0900    3.0772   -0.1218 H   0  0  0  0  0  0  0  0  0  0  0  0
   -4.4722   -1.5853   -0.2998 H   0  0  0  0  0  0  0  0  0  0  0  0
   -4.4009   -0.5004    1.1141 H   0  0  0  0  0  0  0  0  0  0  0  0
   -6.2598   -0.1570   -1.2979 H   0  0  0  0  0  0  0  0  0  0  0  0
   -6.7476   -0.7395    0.3007 H   0  0  0  0  0  0  0  0  0  0  0  0
   -6.1842    0.9270    0.0975 H   0  0  0  0  0  0  0  0  0  0  0  0
  1  2  1  0  0  0  0
  2  3  1  0  0  0  0
  3  4  2  0  0  0  0
  4  5  2  0  0  0  0
  4  6  2  0  0  0  0
  6  7  1  0  0  0  0
  7  8  1  0  0  0  0
  4  9  1  0  0  0  0
  9 10  1  0  0  0  0
 10 11  1  0  0  0  0
 11 12  1  0  0  0  0
 12 13  2  0  0  0  0
 12 14  2  0  0  0  0
 14 15  1  0  0  0  0
 15 16  1  0  0  0  0
 12 17  2  0  0  0  0
 17 18  1  0  0  0  0
 18 19  1  0  0  0  0
  1 20  1  0  0  0  0
  1 21  1  0  0  0  0
  1 22  1  0  0  0  0
  2 23  1  0  0  0  0
  2 24  1  0  0  0  0
  7 25  1  0  0  0  0
  7 26  1  0  0  0  0
  8 27  1  0  0  0  0
  8 28  1  0  0  0  0
  8 29  1  0  0  0  0
 10 30  1  0  0  0  0
 10 31  1  0  0  0  0
 15 32  1  0  0  0  0
 15 33  1  0  0  0  0
 16 34  1  0  0  0  0
 16 35  1  0  0  0  0
 16 36  1  0  0  0  0
 18 37  1  0  0  0  0
 18 38  1  0  0  0  0
 19 39  1  0  0  0  0
 19 40  1  0  0  0  0
 19 41  1  0  0  0  0
M  END
