 xtb: 6.7.1 (edcfbbe)
          04092505213D

 41 40  0     0  0            999 V2000
    1.7841   -1.9143   -2.4317 C   0  0  0  0  0  0  0  0  0  0  0  0
    2.2044   -0.4611   -2.5044 C   0  0  0  0  0  0  0  0  0  0  0  0
    1.7909    0.3089   -1.3449 O   0  0  0  0  0  0  0  0  0  0  0  0
    2.1911   -0.0209    0.1450 P   0  0  0  0  0  0  0  0  0  0  0  0
    2.2023    1.5443    1.3228 S   0  0  0  0  0  0  0  0  0  0  0  0
    3.5929   -0.7415   -0.0649 O   0  0  0  0  0  0  0  0  0  0  0  0
    4.3910   -1.2064    1.0416 C   0  0  0  0  0  0  0  0  0  0  0  0
    5.4248   -0.1710    1.4383 C   0  0  0  0  0  0  0  0  0  0  0  0
    0.9542   -1.6234    0.8307 S   0  0  0  0  0  0  0  0  0  0  0  0
   -0.1138   -0.7575    2.0155 C   0  0  0  0  0  0  0  0  0  0  0  0
   -1.8768   -0.9781    1.6635 S   0  0  0  0  0  0  0  0  0  0  0  0
   -2.0769    0.2273   -0.0477 P   0  0  0  0  0  0  0  0  0  0  0  0
   -0.9744    1.8547   -0.1575 S   0  0  0  0  0  0  0  0  0  0  0  0
   -3.6442    0.4791   -0.1007 O   0  0  0  0  0  0  0  0  0  0  0  0
   -4.2793    1.4470    0.7572 C   0  0  0  0  0  0  0  0  0  0  0  0
   -5.6536    1.7408    0.1902 C   0  0  0  0  0  0  0  0  0  0  0  0
   -1.8665   -0.8227   -1.2123 O   0  0  0  0  0  0  0  0  0  0  0  0
   -1.6626   -0.4040   -2.5798 C   0  0  0  0  0  0  0  0  0  0  0  0
   -2.8806    0.2869   -3.1542 C   0  0  0  0  0  0  0  0  0  0  0  0
    2.0156   -2.3943   -3.3774 H   0  0  0  0  0  0  0  0  0  0  0  0
    2.3190   -2.4257   -1.6340 H   0  0  0  0  0  0  0  0  0  0  0  0
    0.7177   -1.9976   -2.2386 H   0  0  0  0  0  0  0  0  0  0  0  0
    1.7194    0.0600   -3.3318 H   0  0  0  0  0  0  0  0  0  0  0  0
    3.2883   -0.3732   -2.5963 H   0  0  0  0  0  0  0  0  0  0  0  0
    3.7351   -1.4481    1.8823 H   0  0  0  0  0  0  0  0  0  0  0  0
    4.8647   -2.1190    0.6746 H   0  0  0  0  0  0  0  0  0  0  0  0
    6.0461   -0.5725    2.2322 H   0  0  0  0  0  0  0  0  0  0  0  0
    6.0484    0.0816    0.5854 H   0  0  0  0  0  0  0  0  0  0  0  0
    4.9345    0.7329    1.7929 H   0  0  0  0  0  0  0  0  0  0  0  0
    0.1457    0.3059    2.0035 H   0  0  0  0  0  0  0  0  0  0  0  0
    0.0445   -1.1872    3.0014 H   0  0  0  0  0  0  0  0  0  0  0  0
   -4.3450    1.0218    1.7624 H   0  0  0  0  0  0  0  0  0  0  0  0
   -3.6548    2.3465    0.7902 H   0  0  0  0  0  0  0  0  0  0  0  0
   -6.2294    0.8223    0.1267 H   0  0  0  0  0  0  0  0  0  0  0  0
   -6.1643    2.4424    0.8414 H   0  0  0  0  0  0  0  0  0  0  0  0
   -5.5664    2.1722   -0.8029 H   0  0  0  0  0  0  0  0  0  0  0  0
   -0.7938    0.2619   -2.6075 H   0  0  0  0  0  0  0  0  0  0  0  0
   -1.4449   -1.3344   -3.1063 H   0  0  0  0  0  0  0  0  0  0  0  0
   -2.7226    0.4709   -4.2125 H   0  0  0  0  0  0  0  0  0  0  0  0
   -3.7619   -0.3344   -3.0196 H   0  0  0  0  0  0  0  0  0  0  0  0
   -3.0390    1.2387   -2.6489 H   0  0  0  0  0  0  0  0  0  0  0  0
  1  2  1  0  0  0  0
  2  3  1  0  0  0  0
  3  4  2  0  0  0  0
  4  5  2  0  0  0  0
  4  6  2  0  0  0  0
  6  7  1  0  0  0  0
  7  8  1  0  0  0  0
  4  9  1  0  0  0  0
  9 10  1  0  0  0  0
 10 11  1  0  0  0  0
 11 12  1  0  0  0  0
 12 13  2  0  0  0  0
 12 14  2  0  0  0  0
 14 15  1  0  0  0  0
 15 16  1  0  0  0  0
 12 17  2  0  0  0  0
 17 18  1  0  0  0  0
 18 19  1  0  0  0  0
  1 20  1  0  0  0  0
  1 21  1  0  0  0  0
  1 22  1  0  0  0  0
  2 23  1  0  0  0  0
  2 24  1  0  0  0  0
  7 25  1  0  0  0  0
  7 26  1  0  0  0  0
  8 27  1  0  0  0  0
  8 28  1  0  0  0  0
  8 29  1  0  0  0  0
 10 30  1  0  0  0  0
 10 31  1  0  0  0  0
 15 32  1  0  0  0  0
 15 33  1  0  0  0  0
 16 34  1  0  0  0  0
 16 35  1  0  0  0  0
 16 36  1  0  0  0  0
 18 37  1  0  0  0  0
 18 38  1  0  0  0  0
 19 39  1  0  0  0  0
 19 40  1  0  0  0  0
 19 41  1  0  0  0  0
M  END
