 xtb: 6.7.1 (edcfbbe)
          04092505203D

 41 40  0     0  0            999 V2000
    4.7664   -1.2244   -1.0212 C   0  0  0  0  0  0  0  0  0  0  0  0
    4.6949    0.1851   -0.4704 C   0  0  0  0  0  0  0  0  0  0  0  0
    3.5192    0.3936    0.3314 O   0  0  0  0  0  0  0  0  0  0  0  0
    2.0529    0.4273   -0.2902 P   0  0  0  0  0  0  0  0  0  0  0  0
    1.9737    1.3100   -2.0450 S   0  0  0  0  0  0  0  0  0  0  0  0
    1.2551    1.0857    0.9105 O   0  0  0  0  0  0  0  0  0  0  0  0
    1.3475    2.5038    1.1668 C   0  0  0  0  0  0  0  0  0  0  0  0
    0.4891    2.8103    2.3749 C   0  0  0  0  0  0  0  0  0  0  0  0
    1.3901   -1.5530   -0.1545 S   0  0  0  0  0  0  0  0  0  0  0  0
    0.1155   -1.5682   -1.4629 C   0  0  0  0  0  0  0  0  0  0  0  0
   -1.5354   -1.9316   -0.8311 S   0  0  0  0  0  0  0  0  0  0  0  0
   -1.9304   -0.0815    0.1438 P   0  0  0  0  0  0  0  0  0  0  0  0
   -1.4023    1.5127   -0.8625 S   0  0  0  0  0  0  0  0  0  0  0  0
   -1.3223   -0.1251    1.5926 O   0  0  0  0  0  0  0  0  0  0  0  0
   -1.6796   -1.1116    2.5997 C   0  0  0  0  0  0  0  0  0  0  0  0
   -0.5966   -2.1628    2.7327 C   0  0  0  0  0  0  0  0  0  0  0  0
   -3.4872   -0.2012    0.4415 O   0  0  0  0  0  0  0  0  0  0  0  0
   -4.4599   -0.1283   -0.6209 C   0  0  0  0  0  0  0  0  0  0  0  0
   -5.8150    0.1265    0.0071 C   0  0  0  0  0  0  0  0  0  0  0  0
    4.6503   -1.9499   -0.2202 H   0  0  0  0  0  0  0  0  0  0  0  0
    3.9740   -1.3764   -1.7527 H   0  0  0  0  0  0  0  0  0  0  0  0
    5.7259   -1.3704   -1.5067 H   0  0  0  0  0  0  0  0  0  0  0  0
    4.6898    0.9164   -1.2851 H   0  0  0  0  0  0  0  0  0  0  0  0
    5.5179    0.3945    0.2143 H   0  0  0  0  0  0  0  0  0  0  0  0
    2.3970    2.7570    1.3398 H   0  0  0  0  0  0  0  0  0  0  0  0
    0.9910    3.0344    0.2768 H   0  0  0  0  0  0  0  0  0  0  0  0
    0.8470    2.2538    3.2360 H   0  0  0  0  0  0  0  0  0  0  0  0
    0.5326    3.8745    2.5823 H   0  0  0  0  0  0  0  0  0  0  0  0
   -0.5401    2.5244    2.1717 H   0  0  0  0  0  0  0  0  0  0  0  0
    0.3554   -2.3711   -2.1550 H   0  0  0  0  0  0  0  0  0  0  0  0
    0.1179   -0.5976   -1.9666 H   0  0  0  0  0  0  0  0  0  0  0  0
   -1.7809   -0.5296    3.5170 H   0  0  0  0  0  0  0  0  0  0  0  0
   -2.6407   -1.5560    2.3373 H   0  0  0  0  0  0  0  0  0  0  0  0
    0.3684   -1.6875    2.8888 H   0  0  0  0  0  0  0  0  0  0  0  0
   -0.8253   -2.7962    3.5839 H   0  0  0  0  0  0  0  0  0  0  0  0
   -0.5375   -2.7782    1.8383 H   0  0  0  0  0  0  0  0  0  0  0  0
   -4.1725    0.6809   -1.3004 H   0  0  0  0  0  0  0  0  0  0  0  0
   -4.4411   -1.0764   -1.1646 H   0  0  0  0  0  0  0  0  0  0  0  0
   -5.8017    1.0642    0.5555 H   0  0  0  0  0  0  0  0  0  0  0  0
   -6.5642    0.1799   -0.7758 H   0  0  0  0  0  0  0  0  0  0  0  0
   -6.0655   -0.6790    0.6910 H   0  0  0  0  0  0  0  0  0  0  0  0
  1  2  1  0  0  0  0
  2  3  1  0  0  0  0
  3  4  2  0  0  0  0
  4  5  2  0  0  0  0
  4  6  2  0  0  0  0
  6  7  1  0  0  0  0
  7  8  1  0  0  0  0
  4  9  1  0  0  0  0
  9 10  1  0  0  0  0
 10 11  1  0  0  0  0
 11 12  1  0  0  0  0
 12 13  2  0  0  0  0
 12 14  2  0  0  0  0
 14 15  1  0  0  0  0
 15 16  1  0  0  0  0
 12 17  2  0  0  0  0
 17 18  1  0  0  0  0
 18 19  1  0  0  0  0
  1 20  1  0  0  0  0
  1 21  1  0  0  0  0
  1 22  1  0  0  0  0
  2 23  1  0  0  0  0
  2 24  1  0  0  0  0
  7 25  1  0  0  0  0
  7 26  1  0  0  0  0
  8 27  1  0  0  0  0
  8 28  1  0  0  0  0
  8 29  1  0  0  0  0
 10 30  1  0  0  0  0
 10 31  1  0  0  0  0
 15 32  1  0  0  0  0
 15 33  1  0  0  0  0
 16 34  1  0  0  0  0
 16 35  1  0  0  0  0
 16 36  1  0  0  0  0
 18 37  1  0  0  0  0
 18 38  1  0  0  0  0
 19 39  1  0  0  0  0
 19 40  1  0  0  0  0
 19 41  1  0  0  0  0
M  END
