 xtb: 6.7.1 (edcfbbe)
          04092505203D

 41 40  0     0  0            999 V2000
    3.7558    2.2217    0.3789 C   0  0  0  0  0  0  0  0  0  0  0  0
    2.6237    1.6427   -0.4437 C   0  0  0  0  0  0  0  0  0  0  0  0
    1.6733    0.9445    0.3986 O   0  0  0  0  0  0  0  0  0  0  0  0
    1.7097   -0.6024    0.6947 P   0  0  0  0  0  0  0  0  0  0  0  0
    0.2373   -1.1736    1.8483 S   0  0  0  0  0  0  0  0  0  0  0  0
    3.1626   -0.8075    1.3073 O   0  0  0  0  0  0  0  0  0  0  0  0
    3.5341   -1.9762    2.0595 C   0  0  0  0  0  0  0  0  0  0  0  0
    3.5831   -3.2238    1.2017 C   0  0  0  0  0  0  0  0  0  0  0  0
    1.8497   -1.5468   -1.2086 S   0  0  0  0  0  0  0  0  0  0  0  0
    0.1185   -1.4098   -1.6978 C   0  0  0  0  0  0  0  0  0  0  0  0
   -0.3909    0.3083   -2.0571 S   0  0  0  0  0  0  0  0  0  0  0  0
   -1.8900    0.5731   -0.6140 P   0  0  0  0  0  0  0  0  0  0  0  0
   -2.8360   -1.0457   -0.0264 S   0  0  0  0  0  0  0  0  0  0  0  0
   -2.8237    1.6775   -1.2828 O   0  0  0  0  0  0  0  0  0  0  0  0
   -3.8150    1.3400   -2.2755 C   0  0  0  0  0  0  0  0  0  0  0  0
   -5.1963    1.3009   -1.6517 C   0  0  0  0  0  0  0  0  0  0  0  0
   -1.1627    1.4493    0.4809 O   0  0  0  0  0  0  0  0  0  0  0  0
   -1.8003    1.7495    1.7432 C   0  0  0  0  0  0  0  0  0  0  0  0
   -0.7955    2.4913    2.5976 C   0  0  0  0  0  0  0  0  0  0  0  0
    4.3298    1.4249    0.8439 H   0  0  0  0  0  0  0  0  0  0  0  0
    4.4049    2.7981   -0.2730 H   0  0  0  0  0  0  0  0  0  0  0  0
    3.3608    2.8701    1.1561 H   0  0  0  0  0  0  0  0  0  0  0  0
    2.9998    0.9519   -1.2038 H   0  0  0  0  0  0  0  0  0  0  0  0
    2.0317    2.4258   -0.9220 H   0  0  0  0  0  0  0  0  0  0  0  0
    4.5174   -1.7247    2.4597 H   0  0  0  0  0  0  0  0  0  0  0  0
    2.8196   -2.0996    2.8792 H   0  0  0  0  0  0  0  0  0  0  0  0
    2.5782   -3.5047    0.8911 H   0  0  0  0  0  0  0  0  0  0  0  0
    4.1886   -3.0509    0.3157 H   0  0  0  0  0  0  0  0  0  0  0  0
    4.0110   -4.0370    1.7790 H   0  0  0  0  0  0  0  0  0  0  0  0
   -0.5294   -1.8062   -0.9105 H   0  0  0  0  0  0  0  0  0  0  0  0
    0.0184   -1.9860   -2.6139 H   0  0  0  0  0  0  0  0  0  0  0  0
   -3.7369    2.1249   -3.0297 H   0  0  0  0  0  0  0  0  0  0  0  0
   -3.5639    0.3744   -2.7229 H   0  0  0  0  0  0  0  0  0  0  0  0
   -5.2449    0.5124   -0.9035 H   0  0  0  0  0  0  0  0  0  0  0  0
   -5.4202    2.2520   -1.1770 H   0  0  0  0  0  0  0  0  0  0  0  0
   -5.9317    1.1016   -2.4242 H   0  0  0  0  0  0  0  0  0  0  0  0
   -2.6893    2.3533    1.5442 H   0  0  0  0  0  0  0  0  0  0  0  0
   -2.1014    0.8042    2.2082 H   0  0  0  0  0  0  0  0  0  0  0  0
    0.0804    1.8664    2.7553 H   0  0  0  0  0  0  0  0  0  0  0  0
   -0.4906    3.4079    2.1015 H   0  0  0  0  0  0  0  0  0  0  0  0
   -1.2467    2.7256    3.5562 H   0  0  0  0  0  0  0  0  0  0  0  0
  1  2  1  0  0  0  0
  2  3  1  0  0  0  0
  3  4  2  0  0  0  0
  4  5  2  0  0  0  0
  4  6  2  0  0  0  0
  6  7  1  0  0  0  0
  7  8  1  0  0  0  0
  4  9  1  0  0  0  0
  9 10  1  0  0  0  0
 10 11  1  0  0  0  0
 11 12  1  0  0  0  0
 12 13  2  0  0  0  0
 12 14  2  0  0  0  0
 14 15  1  0  0  0  0
 15 16  1  0  0  0  0
 12 17  2  0  0  0  0
 17 18  1  0  0  0  0
 18 19  1  0  0  0  0
  1 20  1  0  0  0  0
  1 21  1  0  0  0  0
  1 22  1  0  0  0  0
  2 23  1  0  0  0  0
  2 24  1  0  0  0  0
  7 25  1  0  0  0  0
  7 26  1  0  0  0  0
  8 27  1  0  0  0  0
  8 28  1  0  0  0  0
  8 29  1  0  0  0  0
 10 30  1  0  0  0  0
 10 31  1  0  0  0  0
 15 32  1  0  0  0  0
 15 33  1  0  0  0  0
 16 34  1  0  0  0  0
 16 35  1  0  0  0  0
 16 36  1  0  0  0  0
 18 37  1  0  0  0  0
 18 38  1  0  0  0  0
 19 39  1  0  0  0  0
 19 40  1  0  0  0  0
 19 41  1  0  0  0  0
M  END
