 xtb: 6.7.1 (edcfbbe)
          04092505203D

 41 40  0     0  0            999 V2000
    3.2266   -0.7949   -2.5391 C   0  0  0  0  0  0  0  0  0  0  0  0
    3.2272    0.6734   -2.1725 C   0  0  0  0  0  0  0  0  0  0  0  0
    2.1798    1.0083   -1.2311 O   0  0  0  0  0  0  0  0  0  0  0  0
    2.0423    0.4499    0.2326 P   0  0  0  0  0  0  0  0  0  0  0  0
    0.9573    1.5980    1.3870 S   0  0  0  0  0  0  0  0  0  0  0  0
    3.5771    0.3653    0.6649 O   0  0  0  0  0  0  0  0  0  0  0  0
    4.0139    0.3200    2.0328 C   0  0  0  0  0  0  0  0  0  0  0  0
    3.6084   -0.9612    2.7332 C   0  0  0  0  0  0  0  0  0  0  0  0
    1.4092   -1.5875    0.1032 S   0  0  0  0  0  0  0  0  0  0  0  0
    0.0718   -1.6088    1.3306 C   0  0  0  0  0  0  0  0  0  0  0  0
   -1.5626   -2.0046    0.6373 S   0  0  0  0  0  0  0  0  0  0  0  0
   -2.0457   -0.1961   -0.3046 P   0  0  0  0  0  0  0  0  0  0  0  0
   -0.8544    0.5282   -1.6946 S   0  0  0  0  0  0  0  0  0  0  0  0
   -2.3186    0.7179    0.9537 O   0  0  0  0  0  0  0  0  0  0  0  0
   -2.5842    2.1326    0.8272 C   0  0  0  0  0  0  0  0  0  0  0  0
   -2.4668    2.7486    2.2047 C   0  0  0  0  0  0  0  0  0  0  0  0
   -3.5171   -0.4657   -0.8424 O   0  0  0  0  0  0  0  0  0  0  0  0
   -3.7846   -1.0862   -2.1158 C   0  0  0  0  0  0  0  0  0  0  0  0
   -5.1109   -0.5621   -2.6291 C   0  0  0  0  0  0  0  0  0  0  0  0
    3.4852   -1.4021   -1.6727 H   0  0  0  0  0  0  0  0  0  0  0  0
    2.2420   -1.0912   -2.8938 H   0  0  0  0  0  0  0  0  0  0  0  0
    3.9568   -0.9661   -3.3237 H   0  0  0  0  0  0  0  0  0  0  0  0
    2.9912    1.3018   -3.0328 H   0  0  0  0  0  0  0  0  0  0  0  0
    4.1838    0.9721   -1.7387 H   0  0  0  0  0  0  0  0  0  0  0  0
    5.0987    0.4105    1.9587 H   0  0  0  0  0  0  0  0  0  0  0  0
    3.6036    1.1902    2.5549 H   0  0  0  0  0  0  0  0  0  0  0  0
    3.9010   -1.8256    2.1427 H   0  0  0  0  0  0  0  0  0  0  0  0
    4.0949   -1.0050    3.7023 H   0  0  0  0  0  0  0  0  0  0  0  0
    2.5300   -0.9798    2.8809 H   0  0  0  0  0  0  0  0  0  0  0  0
    0.0251   -0.6332    1.8228 H   0  0  0  0  0  0  0  0  0  0  0  0
    0.2786   -2.4082    2.0372 H   0  0  0  0  0  0  0  0  0  0  0  0
   -1.8544    2.5628    0.1325 H   0  0  0  0  0  0  0  0  0  0  0  0
   -3.5885    2.2512    0.4137 H   0  0  0  0  0  0  0  0  0  0  0  0
   -2.7113    3.8039    2.1443 H   0  0  0  0  0  0  0  0  0  0  0  0
   -3.1485    2.2539    2.8900 H   0  0  0  0  0  0  0  0  0  0  0  0
   -1.4490    2.6370    2.5717 H   0  0  0  0  0  0  0  0  0  0  0  0
   -2.9655   -0.8433   -2.8015 H   0  0  0  0  0  0  0  0  0  0  0  0
   -3.8162   -2.1668   -1.9582 H   0  0  0  0  0  0  0  0  0  0  0  0
   -5.3503   -1.0577   -3.5641 H   0  0  0  0  0  0  0  0  0  0  0  0
   -5.8934   -0.7629   -1.9031 H   0  0  0  0  0  0  0  0  0  0  0  0
   -5.0514    0.5098   -2.7973 H   0  0  0  0  0  0  0  0  0  0  0  0
  1  2  1  0  0  0  0
  2  3  1  0  0  0  0
  3  4  2  0  0  0  0
  4  5  2  0  0  0  0
  4  6  2  0  0  0  0
  6  7  1  0  0  0  0
  7  8  1  0  0  0  0
  4  9  1  0  0  0  0
  9 10  1  0  0  0  0
 10 11  1  0  0  0  0
 11 12  1  0  0  0  0
 12 13  2  0  0  0  0
 12 14  2  0  0  0  0
 14 15  1  0  0  0  0
 15 16  1  0  0  0  0
 12 17  2  0  0  0  0
 17 18  1  0  0  0  0
 18 19  1  0  0  0  0
  1 20  1  0  0  0  0
  1 21  1  0  0  0  0
  1 22  1  0  0  0  0
  2 23  1  0  0  0  0
  2 24  1  0  0  0  0
  7 25  1  0  0  0  0
  7 26  1  0  0  0  0
  8 27  1  0  0  0  0
  8 28  1  0  0  0  0
  8 29  1  0  0  0  0
 10 30  1  0  0  0  0
 10 31  1  0  0  0  0
 15 32  1  0  0  0  0
 15 33  1  0  0  0  0
 16 34  1  0  0  0  0
 16 35  1  0  0  0  0
 16 36  1  0  0  0  0
 18 37  1  0  0  0  0
 18 38  1  0  0  0  0
 19 39  1  0  0  0  0
 19 40  1  0  0  0  0
 19 41  1  0  0  0  0
M  END
