 xtb: 6.7.1 (edcfbbe)
          04092507313D

 38 37  0     0  0            999 V2000
    5.3894   -1.8224   -1.0026 C   0  0  0  0  0  0  0  0  0  0  0  0
    4.5701   -0.5417   -0.9894 C   0  0  0  0  0  0  0  0  0  0  0  0
    3.1648   -0.8262   -1.1265 O   0  0  0  0  0  0  0  0  0  0  0  0
    2.4696   -1.0930   -0.0384 C   0  0  0  0  0  0  0  0  0  0  0  0
    2.9227   -1.1136    1.0827 O   0  0  0  0  0  0  0  0  0  0  0  0
    1.0134   -1.3761   -0.3706 C   0  0  0  0  0  0  0  0  0  0  0  0
    0.3979   -0.1920   -1.1215 C   0  0  0  0  0  0  0  0  0  0  0  0
    0.9585   -0.0067   -2.0410 H   0  0  0  0  0  0  0  0  0  0  0  0
    0.4123    1.0489   -0.2557 C   0  0  0  0  0  0  0  0  0  0  0  0
   -0.6045    1.5881    0.1401 O   0  0  0  0  0  0  0  0  0  0  0  0
    1.6199    1.4438    0.0242 O   0  0  0  0  0  0  0  0  0  0  0  0
    1.7895    2.5467    0.9457 C   0  0  0  0  0  0  0  0  0  0  0  0
    3.2162    2.5102    1.4548 C   0  0  0  0  0  0  0  0  0  0  0  0
   -1.3191   -0.5115   -1.6411 S   0  0  0  0  0  0  0  0  0  0  0  0
   -2.4473   -0.0995    0.1113 P   0  0  0  0  0  0  0  0  0  0  0  0
   -1.7350   -0.5070    1.9044 S   0  0  0  0  0  0  0  0  0  0  0  0
   -3.2832    1.2332   -0.0943 O   0  0  0  0  0  0  0  0  0  0  0  0
   -3.1865    2.4122    0.7058 C   0  0  0  0  0  0  0  0  0  0  0  0
   -3.6997   -1.0445   -0.2306 O   0  0  0  0  0  0  0  0  0  0  0  0
   -3.5934   -2.4690   -0.1861 C   0  0  0  0  0  0  0  0  0  0  0  0
    5.1406   -2.4340   -0.1384 H   0  0  0  0  0  0  0  0  0  0  0  0
    5.1866   -2.3884   -1.9075 H   0  0  0  0  0  0  0  0  0  0  0  0
    6.4449   -1.5737   -0.9651 H   0  0  0  0  0  0  0  0  0  0  0  0
    4.8050    0.0890   -1.8467 H   0  0  0  0  0  0  0  0  0  0  0  0
    4.7248    0.0064   -0.0563 H   0  0  0  0  0  0  0  0  0  0  0  0
    0.4772   -1.5684    0.5612 H   0  0  0  0  0  0  0  0  0  0  0  0
    0.9622   -2.2581   -1.0097 H   0  0  0  0  0  0  0  0  0  0  0  0
    1.5725    3.4716    0.4044 H   0  0  0  0  0  0  0  0  0  0  0  0
    1.0637    2.4289    1.7557 H   0  0  0  0  0  0  0  0  0  0  0  0
    3.3557    3.3018    2.1832 H   0  0  0  0  0  0  0  0  0  0  0  0
    3.4137    1.5513    1.9280 H   0  0  0  0  0  0  0  0  0  0  0  0
    3.9114    2.6514    0.6327 H   0  0  0  0  0  0  0  0  0  0  0  0
   -4.2060    2.7659    0.8452 H   0  0  0  0  0  0  0  0  0  0  0  0
   -2.5858    3.1527    0.1809 H   0  0  0  0  0  0  0  0  0  0  0  0
   -2.7285    2.1841    1.6697 H   0  0  0  0  0  0  0  0  0  0  0  0
   -3.0280   -2.8316   -1.0449 H   0  0  0  0  0  0  0  0  0  0  0  0
   -4.6148   -2.8396   -0.2183 H   0  0  0  0  0  0  0  0  0  0  0  0
   -3.1068   -2.7803    0.7408 H   0  0  0  0  0  0  0  0  0  0  0  0
  1  2  1  0  0  0  0
  2  3  1  0  0  0  0
  3  4  1  0  0  0  0
  4  5  2  0  0  0  0
  4  6  1  0  0  0  0
  6  7  1  0  0  0  0
  7  8  1  0  0  0  0
  7  9  1  0  0  0  0
  9 10  2  0  0  0  0
  9 11  4  0  0  0  0
 11 12  1  0  0  0  0
 12 13  1  0  0  0  0
  7 14  1  0  0  0  0
 14 15  1  0  0  0  0
 15 16  2  0  0  0  0
 15 17  2  0  0  0  0
 17 18  1  0  0  0  0
 15 19  1  0  0  0  0
 19 20  1  0  0  0  0
  1 21  1  0  0  0  0
  1 22  1  0  0  0  0
  1 23  1  0  0  0  0
  2 24  1  0  0  0  0
  2 25  1  0  0  0  0
  6 26  1  0  0  0  0
  6 27  1  0  0  0  0
 12 28  1  0  0  0  0
 12 29  1  0  0  0  0
 13 30  1  0  0  0  0
 13 31  1  0  0  0  0
 13 32  1  0  0  0  0
 18 33  1  0  0  0  0
 18 34  1  0  0  0  0
 18 35  1  0  0  0  0
 20 36  1  0  0  0  0
 20 37  1  0  0  0  0
 20 38  1  0  0  0  0
M  END
