 xtb: 6.7.1 (edcfbbe)
          04092505213D

 41 40  0     0  0            999 V2000
    1.9349   -0.3630   -2.8558 C   0  0  0  0  0  0  0  0  0  0  0  0
    2.3170   -1.4928   -1.9224 C   0  0  0  0  0  0  0  0  0  0  0  0
    3.0358   -1.0359   -0.7635 O   0  0  0  0  0  0  0  0  0  0  0  0
    2.4770   -0.0382    0.3397 P   0  0  0  0  0  0  0  0  0  0  0  0
    2.3739    1.8739   -0.0559 S   0  0  0  0  0  0  0  0  0  0  0  0
    3.4908   -0.2519    1.5276 O   0  0  0  0  0  0  0  0  0  0  0  0
    3.8456   -1.5517    2.0607 C   0  0  0  0  0  0  0  0  0  0  0  0
    5.1539   -2.0339    1.4680 C   0  0  0  0  0  0  0  0  0  0  0  0
    0.6637   -0.9937    0.9501 S   0  0  0  0  0  0  0  0  0  0  0  0
   -0.0854    0.4533    1.7627 C   0  0  0  0  0  0  0  0  0  0  0  0
   -1.8790    0.2938    1.8877 S   0  0  0  0  0  0  0  0  0  0  0  0
   -2.3053    0.2662   -0.1802 P   0  0  0  0  0  0  0  0  0  0  0  0
   -1.2077    1.3863   -1.3658 S   0  0  0  0  0  0  0  0  0  0  0  0
   -3.8686    0.5421   -0.2538 O   0  0  0  0  0  0  0  0  0  0  0  0
   -4.4202    1.8636   -0.3748 C   0  0  0  0  0  0  0  0  0  0  0  0
   -4.1958    2.6934    0.8730 C   0  0  0  0  0  0  0  0  0  0  0  0
   -2.2392   -1.2933   -0.4364 O   0  0  0  0  0  0  0  0  0  0  0  0
   -2.0344   -1.8535   -1.7495 C   0  0  0  0  0  0  0  0  0  0  0  0
   -3.2461   -1.6601   -2.6368 C   0  0  0  0  0  0  0  0  0  0  0  0
    1.2109    0.3004   -2.3832 H   0  0  0  0  0  0  0  0  0  0  0  0
    2.8115    0.2257   -3.1150 H   0  0  0  0  0  0  0  0  0  0  0  0
    1.4973   -0.7720   -3.7610 H   0  0  0  0  0  0  0  0  0  0  0  0
    3.0152   -2.1817   -2.4016 H   0  0  0  0  0  0  0  0  0  0  0  0
    1.4311   -2.0392   -1.5854 H   0  0  0  0  0  0  0  0  0  0  0  0
    3.9339   -1.3909    3.1367 H   0  0  0  0  0  0  0  0  0  0  0  0
    3.0319   -2.2535    1.8566 H   0  0  0  0  0  0  0  0  0  0  0  0
    5.0543   -2.1717    0.3949 H   0  0  0  0  0  0  0  0  0  0  0  0
    5.9365   -1.3036    1.6542 H   0  0  0  0  0  0  0  0  0  0  0  0
    5.4265   -2.9782    1.9289 H   0  0  0  0  0  0  0  0  0  0  0  0
    0.1736    1.3401    1.1762 H   0  0  0  0  0  0  0  0  0  0  0  0
    0.2871    0.5341    2.7811 H   0  0  0  0  0  0  0  0  0  0  0  0
   -3.9674    2.3498   -1.2453 H   0  0  0  0  0  0  0  0  0  0  0  0
   -5.4814    1.6887   -0.5568 H   0  0  0  0  0  0  0  0  0  0  0  0
   -4.7348    3.6313    0.7838 H   0  0  0  0  0  0  0  0  0  0  0  0
   -4.5446    2.1564    1.7515 H   0  0  0  0  0  0  0  0  0  0  0  0
   -3.1343    2.9081    0.9930 H   0  0  0  0  0  0  0  0  0  0  0  0
   -1.1526   -1.3805   -2.1942 H   0  0  0  0  0  0  0  0  0  0  0  0
   -1.8355   -2.9078   -1.5539 H   0  0  0  0  0  0  0  0  0  0  0  0
   -4.1355   -2.0469   -2.1466 H   0  0  0  0  0  0  0  0  0  0  0  0
   -3.3893   -0.5993   -2.8393 H   0  0  0  0  0  0  0  0  0  0  0  0
   -3.0926   -2.1817   -3.5762 H   0  0  0  0  0  0  0  0  0  0  0  0
  1  2  1  0  0  0  0
  2  3  1  0  0  0  0
  3  4  2  0  0  0  0
  4  5  2  0  0  0  0
  4  6  2  0  0  0  0
  6  7  1  0  0  0  0
  7  8  1  0  0  0  0
  4  9  1  0  0  0  0
  9 10  1  0  0  0  0
 10 11  1  0  0  0  0
 11 12  1  0  0  0  0
 12 13  2  0  0  0  0
 12 14  2  0  0  0  0
 14 15  1  0  0  0  0
 15 16  1  0  0  0  0
 12 17  2  0  0  0  0
 17 18  1  0  0  0  0
 18 19  1  0  0  0  0
  1 20  1  0  0  0  0
  1 21  1  0  0  0  0
  1 22  1  0  0  0  0
  2 23  1  0  0  0  0
  2 24  1  0  0  0  0
  7 25  1  0  0  0  0
  7 26  1  0  0  0  0
  8 27  1  0  0  0  0
  8 28  1  0  0  0  0
  8 29  1  0  0  0  0
 10 30  1  0  0  0  0
 10 31  1  0  0  0  0
 15 32  1  0  0  0  0
 15 33  1  0  0  0  0
 16 34  1  0  0  0  0
 16 35  1  0  0  0  0
 16 36  1  0  0  0  0
 18 37  1  0  0  0  0
 18 38  1  0  0  0  0
 19 39  1  0  0  0  0
 19 40  1  0  0  0  0
 19 41  1  0  0  0  0
M  END
