 xtb: 6.7.1 (edcfbbe)
          04092505213D

 41 40  0     0  0            999 V2000
    3.7852    0.6831   -3.0050 C   0  0  0  0  0  0  0  0  0  0  0  0
    2.4932    0.4704   -2.2433 C   0  0  0  0  0  0  0  0  0  0  0  0
    2.8108   -0.1999   -1.0092 O   0  0  0  0  0  0  0  0  0  0  0  0
    2.0398    0.0151    0.3608 P   0  0  0  0  0  0  0  0  0  0  0  0
    1.4818    1.8416    0.7652 S   0  0  0  0  0  0  0  0  0  0  0  0
    3.0897   -0.4783    1.4279 O   0  0  0  0  0  0  0  0  0  0  0  0
    3.8070   -1.7380    1.3333 C   0  0  0  0  0  0  0  0  0  0  0  0
    3.3522   -2.6827    2.4279 C   0  0  0  0  0  0  0  0  0  0  0  0
    0.6026   -1.5716    0.3018 S   0  0  0  0  0  0  0  0  0  0  0  0
   -0.2476   -1.2120    1.8545 C   0  0  0  0  0  0  0  0  0  0  0  0
   -1.3572    0.2430    1.8072 S   0  0  0  0  0  0  0  0  0  0  0  0
   -2.0307    0.1931   -0.1925 P   0  0  0  0  0  0  0  0  0  0  0  0
   -0.9071    0.6867   -1.7329 S   0  0  0  0  0  0  0  0  0  0  0  0
   -3.3431    1.0867   -0.1009 O   0  0  0  0  0  0  0  0  0  0  0  0
   -3.3312    2.5006   -0.3524 C   0  0  0  0  0  0  0  0  0  0  0  0
   -2.5557    3.2573    0.7070 C   0  0  0  0  0  0  0  0  0  0  0  0
   -2.6061   -1.2796   -0.2087 O   0  0  0  0  0  0  0  0  0  0  0  0
   -2.8625   -2.0003   -1.4325 C   0  0  0  0  0  0  0  0  0  0  0  0
   -4.0519   -1.4305   -2.1757 C   0  0  0  0  0  0  0  0  0  0  0  0
    4.2690   -0.2715   -3.1900 H   0  0  0  0  0  0  0  0  0  0  0  0
    3.5608    1.1638   -3.9513 H   0  0  0  0  0  0  0  0  0  0  0  0
    4.4563    1.3160   -2.4306 H   0  0  0  0  0  0  0  0  0  0  0  0
    1.7941   -0.1593   -2.7991 H   0  0  0  0  0  0  0  0  0  0  0  0
    1.9986    1.4203   -2.0155 H   0  0  0  0  0  0  0  0  0  0  0  0
    3.6486   -2.1671    0.3422 H   0  0  0  0  0  0  0  0  0  0  0  0
    4.8574   -1.4687    1.4527 H   0  0  0  0  0  0  0  0  0  0  0  0
    3.9937   -3.5581    2.4253 H   0  0  0  0  0  0  0  0  0  0  0  0
    3.4227   -2.1922    3.3949 H   0  0  0  0  0  0  0  0  0  0  0  0
    2.3250   -2.9973    2.2611 H   0  0  0  0  0  0  0  0  0  0  0  0
    0.4806   -1.0047    2.6378 H   0  0  0  0  0  0  0  0  0  0  0  0
   -0.8419   -2.0927    2.0871 H   0  0  0  0  0  0  0  0  0  0  0  0
   -2.8957    2.6740   -1.3423 H   0  0  0  0  0  0  0  0  0  0  0  0
   -4.3865    2.7766   -0.3555 H   0  0  0  0  0  0  0  0  0  0  0  0
   -1.4983    2.9903    0.6625 H   0  0  0  0  0  0  0  0  0  0  0  0
   -2.6510    4.3245    0.5344 H   0  0  0  0  0  0  0  0  0  0  0  0
   -2.9320    3.0148    1.6980 H   0  0  0  0  0  0  0  0  0  0  0  0
   -1.9611   -1.9611   -2.0525 H   0  0  0  0  0  0  0  0  0  0  0  0
   -3.0410   -3.0233   -1.0995 H   0  0  0  0  0  0  0  0  0  0  0  0
   -3.8237   -0.4218   -2.5180 H   0  0  0  0  0  0  0  0  0  0  0  0
   -4.2729   -2.0542   -3.0361 H   0  0  0  0  0  0  0  0  0  0  0  0
   -4.9191   -1.3908   -1.5219 H   0  0  0  0  0  0  0  0  0  0  0  0
  1  2  1  0  0  0  0
  2  3  1  0  0  0  0
  3  4  2  0  0  0  0
  4  5  2  0  0  0  0
  4  6  2  0  0  0  0
  6  7  1  0  0  0  0
  7  8  1  0  0  0  0
  4  9  1  0  0  0  0
  9 10  1  0  0  0  0
 10 11  1  0  0  0  0
 11 12  1  0  0  0  0
 12 13  2  0  0  0  0
 12 14  2  0  0  0  0
 14 15  1  0  0  0  0
 15 16  1  0  0  0  0
 12 17  2  0  0  0  0
 17 18  1  0  0  0  0
 18 19  1  0  0  0  0
  1 20  1  0  0  0  0
  1 21  1  0  0  0  0
  1 22  1  0  0  0  0
  2 23  1  0  0  0  0
  2 24  1  0  0  0  0
  7 25  1  0  0  0  0
  7 26  1  0  0  0  0
  8 27  1  0  0  0  0
  8 28  1  0  0  0  0
  8 29  1  0  0  0  0
 10 30  1  0  0  0  0
 10 31  1  0  0  0  0
 15 32  1  0  0  0  0
 15 33  1  0  0  0  0
 16 34  1  0  0  0  0
 16 35  1  0  0  0  0
 16 36  1  0  0  0  0
 18 37  1  0  0  0  0
 18 38  1  0  0  0  0
 19 39  1  0  0  0  0
 19 40  1  0  0  0  0
 19 41  1  0  0  0  0
M  END
