 xtb: 6.7.1 (edcfbbe)
          04092505213D

 41 40  0     0  0            999 V2000
    5.8951   -0.2331    0.5909 C   0  0  0  0  0  0  0  0  0  0  0  0
    4.4672   -0.7393    0.6072 C   0  0  0  0  0  0  0  0  0  0  0  0
    3.6596    0.1890   -0.1465 O   0  0  0  0  0  0  0  0  0  0  0  0
    2.2161   -0.2262   -0.6647 P   0  0  0  0  0  0  0  0  0  0  0  0
    2.1565   -1.9191   -1.6490 S   0  0  0  0  0  0  0  0  0  0  0  0
    1.8025    1.0073   -1.5513 O   0  0  0  0  0  0  0  0  0  0  0  0
    2.2663    2.3707   -1.3717 C   0  0  0  0  0  0  0  0  0  0  0  0
    1.9716    2.9234    0.0057 C   0  0  0  0  0  0  0  0  0  0  0  0
    1.0202   -0.1916    1.0999 S   0  0  0  0  0  0  0  0  0  0  0  0
   -0.0327   -1.6245    0.7699 C   0  0  0  0  0  0  0  0  0  0  0  0
   -1.1702   -1.4075   -0.6319 S   0  0  0  0  0  0  0  0  0  0  0  0
   -2.2950    0.2644    0.0369 P   0  0  0  0  0  0  0  0  0  0  0  0
   -1.6254    2.0758   -0.2285 S   0  0  0  0  0  0  0  0  0  0  0  0
   -2.6366   -0.1425    1.5416 O   0  0  0  0  0  0  0  0  0  0  0  0
   -2.5260    0.7468    2.6756 C   0  0  0  0  0  0  0  0  0  0  0  0
   -1.5136    0.2137    3.6688 C   0  0  0  0  0  0  0  0  0  0  0  0
   -3.6410    0.0797   -0.7776 O   0  0  0  0  0  0  0  0  0  0  0  0
   -4.4604   -1.1142   -0.6886 C   0  0  0  0  0  0  0  0  0  0  0  0
   -5.8945   -0.7156   -0.9702 C   0  0  0  0  0  0  0  0  0  0  0  0
    6.5182   -0.9117    1.1640 H   0  0  0  0  0  0  0  0  0  0  0  0
    6.2630   -0.1860   -0.4303 H   0  0  0  0  0  0  0  0  0  0  0  0
    5.9447    0.7590    1.0299 H   0  0  0  0  0  0  0  0  0  0  0  0
    4.0706   -0.7859    1.6250 H   0  0  0  0  0  0  0  0  0  0  0  0
    4.3855   -1.7274    0.1424 H   0  0  0  0  0  0  0  0  0  0  0  0
    3.3376    2.3857   -1.5812 H   0  0  0  0  0  0  0  0  0  0  0  0
    1.7236    2.9184   -2.1436 H   0  0  0  0  0  0  0  0  0  0  0  0
    0.9021    2.9024    0.2023 H   0  0  0  0  0  0  0  0  0  0  0  0
    2.4851    2.3415    0.7686 H   0  0  0  0  0  0  0  0  0  0  0  0
    2.3176    3.9512    0.0512 H   0  0  0  0  0  0  0  0  0  0  0  0
   -0.6016   -1.8116    1.6768 H   0  0  0  0  0  0  0  0  0  0  0  0
    0.5861   -2.4797    0.4987 H   0  0  0  0  0  0  0  0  0  0  0  0
   -2.2440    1.7421    2.3170 H   0  0  0  0  0  0  0  0  0  0  0  0
   -3.5256    0.7870    3.1128 H   0  0  0  0  0  0  0  0  0  0  0  0
   -1.5166    0.8537    4.5450 H   0  0  0  0  0  0  0  0  0  0  0  0
   -1.7748   -0.7979    3.9668 H   0  0  0  0  0  0  0  0  0  0  0  0
   -0.5155    0.2166    3.2348 H   0  0  0  0  0  0  0  0  0  0  0  0
   -4.0885   -1.8244   -1.4308 H   0  0  0  0  0  0  0  0  0  0  0  0
   -4.3520   -1.5422    0.3105 H   0  0  0  0  0  0  0  0  0  0  0  0
   -5.9652   -0.2551   -1.9515 H   0  0  0  0  0  0  0  0  0  0  0  0
   -6.5217   -1.6008   -0.9418 H   0  0  0  0  0  0  0  0  0  0  0  0
   -6.2403   -0.0037   -0.2258 H   0  0  0  0  0  0  0  0  0  0  0  0
  1  2  1  0  0  0  0
  2  3  1  0  0  0  0
  3  4  2  0  0  0  0
  4  5  2  0  0  0  0
  4  6  2  0  0  0  0
  6  7  1  0  0  0  0
  7  8  1  0  0  0  0
  4  9  1  0  0  0  0
  9 10  1  0  0  0  0
 10 11  1  0  0  0  0
 11 12  1  0  0  0  0
 12 13  2  0  0  0  0
 12 14  2  0  0  0  0
 14 15  1  0  0  0  0
 15 16  1  0  0  0  0
 12 17  2  0  0  0  0
 17 18  1  0  0  0  0
 18 19  1  0  0  0  0
  1 20  1  0  0  0  0
  1 21  1  0  0  0  0
  1 22  1  0  0  0  0
  2 23  1  0  0  0  0
  2 24  1  0  0  0  0
  7 25  1  0  0  0  0
  7 26  1  0  0  0  0
  8 27  1  0  0  0  0
  8 28  1  0  0  0  0
  8 29  1  0  0  0  0
 10 30  1  0  0  0  0
 10 31  1  0  0  0  0
 15 32  1  0  0  0  0
 15 33  1  0  0  0  0
 16 34  1  0  0  0  0
 16 35  1  0  0  0  0
 16 36  1  0  0  0  0
 18 37  1  0  0  0  0
 18 38  1  0  0  0  0
 19 39  1  0  0  0  0
 19 40  1  0  0  0  0
 19 41  1  0  0  0  0
M  END
