 xtb: 6.7.1 (edcfbbe)
          04092505213D

 41 40  0     0  0            999 V2000
    4.3055    2.0309    0.8427 C   0  0  0  0  0  0  0  0  0  0  0  0
    4.3219    1.3407   -0.5066 C   0  0  0  0  0  0  0  0  0  0  0  0
    3.5885    0.1019   -0.4709 O   0  0  0  0  0  0  0  0  0  0  0  0
    1.9930    0.0699   -0.4328 P   0  0  0  0  0  0  0  0  0  0  0  0
    1.1010    1.6012   -1.2508 S   0  0  0  0  0  0  0  0  0  0  0  0
    1.5752   -0.1024    1.0902 O   0  0  0  0  0  0  0  0  0  0  0  0
    2.1659   -1.1177    1.9404 C   0  0  0  0  0  0  0  0  0  0  0  0
    2.1544   -0.5969    3.3626 C   0  0  0  0  0  0  0  0  0  0  0  0
    1.8295   -1.8403   -1.3213 S   0  0  0  0  0  0  0  0  0  0  0  0
    0.0236   -1.9578   -1.4586 C   0  0  0  0  0  0  0  0  0  0  0  0
   -0.8426   -1.9234    0.1399 S   0  0  0  0  0  0  0  0  0  0  0  0
   -1.8938   -0.0999   -0.0243 P   0  0  0  0  0  0  0  0  0  0  0  0
   -2.2553    0.4494   -1.8794 S   0  0  0  0  0  0  0  0  0  0  0  0
   -1.0778    0.8287    0.9554 O   0  0  0  0  0  0  0  0  0  0  0  0
   -1.6044    2.0062    1.6064 C   0  0  0  0  0  0  0  0  0  0  0  0
   -2.1139    3.0316    0.6163 C   0  0  0  0  0  0  0  0  0  0  0  0
   -3.2097   -0.3546    0.8308 O   0  0  0  0  0  0  0  0  0  0  0  0
   -4.3578   -1.0395    0.2930 C   0  0  0  0  0  0  0  0  0  0  0  0
   -5.5871   -0.5566    1.0366 C   0  0  0  0  0  0  0  0  0  0  0  0
    4.8924    2.9424    0.7887 H   0  0  0  0  0  0  0  0  0  0  0  0
    3.2792    2.2849    1.1081 H   0  0  0  0  0  0  0  0  0  0  0  0
    4.7217    1.3791    1.6066 H   0  0  0  0  0  0  0  0  0  0  0  0
    5.3292    1.0449   -0.8028 H   0  0  0  0  0  0  0  0  0  0  0  0
    3.8820    1.9851   -1.2744 H   0  0  0  0  0  0  0  0  0  0  0  0
    1.5570   -2.0208    1.8438 H   0  0  0  0  0  0  0  0  0  0  0  0
    3.1809   -1.3248    1.5907 H   0  0  0  0  0  0  0  0  0  0  0  0
    2.7503    0.3082    3.4411 H   0  0  0  0  0  0  0  0  0  0  0  0
    1.1347   -0.3725    3.6630 H   0  0  0  0  0  0  0  0  0  0  0  0
    2.5640   -1.3563    4.0208 H   0  0  0  0  0  0  0  0  0  0  0  0
   -0.1702   -2.9217   -1.9222 H   0  0  0  0  0  0  0  0  0  0  0  0
   -0.3638   -1.1420   -2.0770 H   0  0  0  0  0  0  0  0  0  0  0  0
   -2.3943    1.6908    2.2917 H   0  0  0  0  0  0  0  0  0  0  0  0
   -0.7479    2.3856    2.1663 H   0  0  0  0  0  0  0  0  0  0  0  0
   -2.9737    2.6378    0.0751 H   0  0  0  0  0  0  0  0  0  0  0  0
   -2.4068    3.9336    1.1440 H   0  0  0  0  0  0  0  0  0  0  0  0
   -1.3357    3.2717   -0.1065 H   0  0  0  0  0  0  0  0  0  0  0  0
   -4.4246   -0.8206   -0.7782 H   0  0  0  0  0  0  0  0  0  0  0  0
   -4.2022   -2.1120    0.4322 H   0  0  0  0  0  0  0  0  0  0  0  0
   -5.4762   -0.7464    2.1003 H   0  0  0  0  0  0  0  0  0  0  0  0
   -5.7270    0.5095    0.8801 H   0  0  0  0  0  0  0  0  0  0  0  0
   -6.4569   -1.0880    0.6651 H   0  0  0  0  0  0  0  0  0  0  0  0
  1  2  1  0  0  0  0
  2  3  1  0  0  0  0
  3  4  1  0  0  0  0
  4  5  2  0  0  0  0
  4  6  2  0  0  0  0
  6  7  1  0  0  0  0
  7  8  1  0  0  0  0
  4  9  1  0  0  0  0
  9 10  1  0  0  0  0
 10 11  1  0  0  0  0
 11 12  1  0  0  0  0
 12 13  2  0  0  0  0
 12 14  2  0  0  0  0
 14 15  1  0  0  0  0
 15 16  1  0  0  0  0
 12 17  2  0  0  0  0
 17 18  1  0  0  0  0
 18 19  1  0  0  0  0
  1 20  1  0  0  0  0
  1 21  1  0  0  0  0
  1 22  1  0  0  0  0
  2 23  1  0  0  0  0
  2 24  1  0  0  0  0
  7 25  1  0  0  0  0
  7 26  1  0  0  0  0
  8 27  1  0  0  0  0
  8 28  1  0  0  0  0
  8 29  1  0  0  0  0
 10 30  1  0  0  0  0
 10 31  1  0  0  0  0
 15 32  1  0  0  0  0
 15 33  1  0  0  0  0
 16 34  1  0  0  0  0
 16 35  1  0  0  0  0
 16 36  1  0  0  0  0
 18 37  1  0  0  0  0
 18 38  1  0  0  0  0
 19 39  1  0  0  0  0
 19 40  1  0  0  0  0
 19 41  1  0  0  0  0
M  END
