 xtb: 6.7.1 (edcfbbe)
          04032520013D

 19 19  0     0  0            999 V2000
    2.1576   -1.1978   -0.1021 C   0  0  0  0  0  0  0  0  0  0  0  0
    1.3994    0.1028    0.0064 C   0  0  0  0  0  0  0  0  0  0  0  0
    1.9708    1.1977    0.0550 O   0  0  0  0  0  0  0  0  0  0  0  0
    0.0683    0.0091    0.0484 N   0  0  0  0  0  0  0  0  0  0  0  0
   -0.7125   -1.2143   -0.0290 C   0  0  0  0  0  0  0  0  0  0  0  0
   -2.1472   -0.7552    0.2308 C   0  0  0  0  0  0  0  0  0  0  0  0
   -2.1537    0.6720   -0.3135 C   0  0  0  0  0  0  0  0  0  0  0  0
   -0.7834    1.1885    0.1088 C   0  0  0  0  0  0  0  0  0  0  0  0
    1.8382   -1.7483   -0.9830 H   0  0  0  0  0  0  0  0  0  0  0  0
    1.9784   -1.8097    0.7784 H   0  0  0  0  0  0  0  0  0  0  0  0
    3.2185   -0.9769   -0.1749 H   0  0  0  0  0  0  0  0  0  0  0  0
   -0.6168   -1.6539   -1.0275 H   0  0  0  0  0  0  0  0  0  0  0  0
   -0.3701   -1.9426    0.7078 H   0  0  0  0  0  0  0  0  0  0  0  0
   -2.8762   -1.3965   -0.2574 H   0  0  0  0  0  0  0  0  0  0  0  0
   -2.3478   -0.7439    1.3018 H   0  0  0  0  0  0  0  0  0  0  0  0
   -2.2307    0.6615   -1.4005 H   0  0  0  0  0  0  0  0  0  0  0  0
   -2.9608    1.2757    0.0920 H   0  0  0  0  0  0  0  0  0  0  0  0
   -0.3773    1.9660   -0.5411 H   0  0  0  0  0  0  0  0  0  0  0  0
   -0.7964    1.5775    1.1328 H   0  0  0  0  0  0  0  0  0  0  0  0
  1  2  1  0  0  0  0
  2  3  2  0  0  0  0
  2  4  4  0  0  0  0
  4  5  1  0  0  0  0
  5  6  1  0  0  0  0
  6  7  1  0  0  0  0
  4  8  1  0  0  0  0
  7  8  1  0  0  0  0
  1  9  1  0  0  0  0
  1 10  1  0  0  0  0
  1 11  1  0  0  0  0
  5 12  1  0  0  0  0
  5 13  1  0  0  0  0
  6 14  1  0  0  0  0
  6 15  1  0  0  0  0
  7 16  1  0  0  0  0
  7 17  1  0  0  0  0
  8 18  1  0  0  0  0
  8 19  1  0  0  0  0
M  END
