 xtb: 6.7.1 (edcfbbe)
          04092505213D

 41 40  0     0  0            999 V2000
    5.4250   -1.2687   -0.6907 C   0  0  0  0  0  0  0  0  0  0  0  0
    4.1575   -2.1000   -0.7073 C   0  0  0  0  0  0  0  0  0  0  0  0
    3.0398   -1.3687   -1.2553 O   0  0  0  0  0  0  0  0  0  0  0  0
    2.2500   -0.2506   -0.4587 P   0  0  0  0  0  0  0  0  0  0  0  0
    3.0738    1.5098   -0.1794 S   0  0  0  0  0  0  0  0  0  0  0  0
    1.8341   -0.9971    0.8902 O   0  0  0  0  0  0  0  0  0  0  0  0
    1.8624   -0.3996    2.1985 C   0  0  0  0  0  0  0  0  0  0  0  0
    3.0606   -0.9107    2.9735 C   0  0  0  0  0  0  0  0  0  0  0  0
    0.5561   -0.2903   -1.7164 S   0  0  0  0  0  0  0  0  0  0  0  0
   -0.1605    1.2737   -1.1345 C   0  0  0  0  0  0  0  0  0  0  0  0
   -0.7275    1.1873    0.5827 S   0  0  0  0  0  0  0  0  0  0  0  0
   -2.6218    0.2468    0.2561 P   0  0  0  0  0  0  0  0  0  0  0  0
   -3.3317    0.4007   -1.5703 S   0  0  0  0  0  0  0  0  0  0  0  0
   -3.5594    0.8294    1.3854 O   0  0  0  0  0  0  0  0  0  0  0  0
   -4.3845    1.9869    1.1664 C   0  0  0  0  0  0  0  0  0  0  0  0
   -3.5662    3.2600    1.0801 C   0  0  0  0  0  0  0  0  0  0  0  0
   -2.5018   -1.1892    0.9129 O   0  0  0  0  0  0  0  0  0  0  0  0
   -1.5774   -2.2226    0.5379 C   0  0  0  0  0  0  0  0  0  0  0  0
   -1.9247   -2.8541   -0.7959 C   0  0  0  0  0  0  0  0  0  0  0  0
    5.3067   -0.4059   -0.0375 H   0  0  0  0  0  0  0  0  0  0  0  0
    6.2493   -1.8765   -0.3311 H   0  0  0  0  0  0  0  0  0  0  0  0
    5.6521   -0.9106   -1.6915 H   0  0  0  0  0  0  0  0  0  0  0  0
    3.8953   -2.4410    0.2975 H   0  0  0  0  0  0  0  0  0  0  0  0
    4.2547   -2.9587   -1.3740 H   0  0  0  0  0  0  0  0  0  0  0  0
    1.9012    0.6894    2.0945 H   0  0  0  0  0  0  0  0  0  0  0  0
    0.9218   -0.6839    2.6736 H   0  0  0  0  0  0  0  0  0  0  0  0
    3.9810   -0.5899    2.4898 H   0  0  0  0  0  0  0  0  0  0  0  0
    3.0318   -0.5040    3.9791 H   0  0  0  0  0  0  0  0  0  0  0  0
    3.0429   -1.9959    3.0252 H   0  0  0  0  0  0  0  0  0  0  0  0
   -1.0069    1.4909   -1.7874 H   0  0  0  0  0  0  0  0  0  0  0  0
    0.5950    2.0578   -1.1781 H   0  0  0  0  0  0  0  0  0  0  0  0
   -4.9625    1.8370    0.2486 H   0  0  0  0  0  0  0  0  0  0  0  0
   -5.0540    1.9971    2.0275 H   0  0  0  0  0  0  0  0  0  0  0  0
   -2.9594    3.2536    0.1758 H   0  0  0  0  0  0  0  0  0  0  0  0
   -4.2342    4.1148    1.0480 H   0  0  0  0  0  0  0  0  0  0  0  0
   -2.9102    3.3459    1.9426 H   0  0  0  0  0  0  0  0  0  0  0  0
   -0.5620   -1.8143    0.5193 H   0  0  0  0  0  0  0  0  0  0  0  0
   -1.6614   -2.9468    1.3508 H   0  0  0  0  0  0  0  0  0  0  0  0
   -1.2667   -3.6987   -0.9735 H   0  0  0  0  0  0  0  0  0  0  0  0
   -2.9570   -3.1944   -0.7912 H   0  0  0  0  0  0  0  0  0  0  0  0
   -1.7967   -2.1364   -1.6044 H   0  0  0  0  0  0  0  0  0  0  0  0
  1  2  1  0  0  0  0
  2  3  1  0  0  0  0
  3  4  2  0  0  0  0
  4  5  2  0  0  0  0
  4  6  2  0  0  0  0
  6  7  1  0  0  0  0
  7  8  1  0  0  0  0
  4  9  1  0  0  0  0
  9 10  1  0  0  0  0
 10 11  1  0  0  0  0
 11 12  1  0  0  0  0
 12 13  2  0  0  0  0
 12 14  2  0  0  0  0
 14 15  1  0  0  0  0
 15 16  1  0  0  0  0
 12 17  2  0  0  0  0
 17 18  1  0  0  0  0
 18 19  1  0  0  0  0
  1 20  1  0  0  0  0
  1 21  1  0  0  0  0
  1 22  1  0  0  0  0
  2 23  1  0  0  0  0
  2 24  1  0  0  0  0
  7 25  1  0  0  0  0
  7 26  1  0  0  0  0
  8 27  1  0  0  0  0
  8 28  1  0  0  0  0
  8 29  1  0  0  0  0
 10 30  1  0  0  0  0
 10 31  1  0  0  0  0
 15 32  1  0  0  0  0
 15 33  1  0  0  0  0
 16 34  1  0  0  0  0
 16 35  1  0  0  0  0
 16 36  1  0  0  0  0
 18 37  1  0  0  0  0
 18 38  1  0  0  0  0
 19 39  1  0  0  0  0
 19 40  1  0  0  0  0
 19 41  1  0  0  0  0
M  END
