 xtb: 6.7.1 (edcfbbe)
          04092505203D

 41 40  0     0  0            999 V2000
    4.6587   -1.3490   -0.7584 C   0  0  0  0  0  0  0  0  0  0  0  0
    4.6353    0.0624   -0.2077 C   0  0  0  0  0  0  0  0  0  0  0  0
    3.4490    0.3311    0.5576 O   0  0  0  0  0  0  0  0  0  0  0  0
    2.0024    0.4086   -0.1006 P   0  0  0  0  0  0  0  0  0  0  0  0
    1.9667    1.2369   -1.8815 S   0  0  0  0  0  0  0  0  0  0  0  0
    1.1898    1.1121    1.0652 O   0  0  0  0  0  0  0  0  0  0  0  0
    1.0884    2.5464    1.1778 C   0  0  0  0  0  0  0  0  0  0  0  0
    2.4346    3.2092    1.3742 C   0  0  0  0  0  0  0  0  0  0  0  0
    1.2922   -1.5707    0.0748 S   0  0  0  0  0  0  0  0  0  0  0  0
    0.2589   -1.6835   -1.4232 C   0  0  0  0  0  0  0  0  0  0  0  0
   -1.4485   -2.1719   -1.0649 S   0  0  0  0  0  0  0  0  0  0  0  0
   -2.0691   -0.4539   -0.0382 P   0  0  0  0  0  0  0  0  0  0  0  0
   -1.5194    1.2872   -0.7720 S   0  0  0  0  0  0  0  0  0  0  0  0
   -1.5979   -0.7838    1.4322 O   0  0  0  0  0  0  0  0  0  0  0  0
   -1.7833    0.1500    2.5216 C   0  0  0  0  0  0  0  0  0  0  0  0
   -0.7406   -0.1519    3.5775 C   0  0  0  0  0  0  0  0  0  0  0  0
   -3.6445   -0.6219    0.0819 O   0  0  0  0  0  0  0  0  0  0  0  0
   -4.5446   -0.2653   -0.9872 C   0  0  0  0  0  0  0  0  0  0  0  0
   -5.8944    0.0555   -0.3776 C   0  0  0  0  0  0  0  0  0  0  0  0
    4.4820   -2.0686    0.0369 H   0  0  0  0  0  0  0  0  0  0  0  0
    3.8846   -1.4642   -1.5159 H   0  0  0  0  0  0  0  0  0  0  0  0
    5.6258   -1.5403   -1.2121 H   0  0  0  0  0  0  0  0  0  0  0  0
    4.6918    0.7911   -1.0228 H   0  0  0  0  0  0  0  0  0  0  0  0
    5.4470    0.2320    0.5010 H   0  0  0  0  0  0  0  0  0  0  0  0
    0.5904    2.9255    0.2789 H   0  0  0  0  0  0  0  0  0  0  0  0
    0.4382    2.6929    2.0420 H   0  0  0  0  0  0  0  0  0  0  0  0
    3.0409    3.0934    0.4766 H   0  0  0  0  0  0  0  0  0  0  0  0
    2.2855    4.2678    1.5630 H   0  0  0  0  0  0  0  0  0  0  0  0
    2.9563    2.7585    2.2145 H   0  0  0  0  0  0  0  0  0  0  0  0
    0.6598   -2.4698   -2.0577 H   0  0  0  0  0  0  0  0  0  0  0  0
    0.2745   -0.7175   -1.9361 H   0  0  0  0  0  0  0  0  0  0  0  0
   -1.6810    1.1674    2.1283 H   0  0  0  0  0  0  0  0  0  0  0  0
   -2.7971    0.0124    2.9040 H   0  0  0  0  0  0  0  0  0  0  0  0
    0.2564   -0.0114    3.1673 H   0  0  0  0  0  0  0  0  0  0  0  0
   -0.8823    0.5154    4.4216 H   0  0  0  0  0  0  0  0  0  0  0  0
   -0.8393   -1.1816    3.9083 H   0  0  0  0  0  0  0  0  0  0  0  0
   -4.1302    0.5971   -1.5204 H   0  0  0  0  0  0  0  0  0  0  0  0
   -4.6060   -1.1156   -1.6705 H   0  0  0  0  0  0  0  0  0  0  0  0
   -6.5969    0.2848   -1.1720 H   0  0  0  0  0  0  0  0  0  0  0  0
   -6.2561   -0.7979    0.1886 H   0  0  0  0  0  0  0  0  0  0  0  0
   -5.8129    0.9117    0.2862 H   0  0  0  0  0  0  0  0  0  0  0  0
  1  2  1  0  0  0  0
  2  3  1  0  0  0  0
  3  4  2  0  0  0  0
  4  5  2  0  0  0  0
  4  6  2  0  0  0  0
  6  7  1  0  0  0  0
  7  8  1  0  0  0  0
  4  9  1  0  0  0  0
  9 10  1  0  0  0  0
 10 11  1  0  0  0  0
 11 12  1  0  0  0  0
 12 13  2  0  0  0  0
 12 14  2  0  0  0  0
 14 15  1  0  0  0  0
 15 16  1  0  0  0  0
 12 17  2  0  0  0  0
 17 18  1  0  0  0  0
 18 19  1  0  0  0  0
  1 20  1  0  0  0  0
  1 21  1  0  0  0  0
  1 22  1  0  0  0  0
  2 23  1  0  0  0  0
  2 24  1  0  0  0  0
  7 25  1  0  0  0  0
  7 26  1  0  0  0  0
  8 27  1  0  0  0  0
  8 28  1  0  0  0  0
  8 29  1  0  0  0  0
 10 30  1  0  0  0  0
 10 31  1  0  0  0  0
 15 32  1  0  0  0  0
 15 33  1  0  0  0  0
 16 34  1  0  0  0  0
 16 35  1  0  0  0  0
 16 36  1  0  0  0  0
 18 37  1  0  0  0  0
 18 38  1  0  0  0  0
 19 39  1  0  0  0  0
 19 40  1  0  0  0  0
 19 41  1  0  0  0  0
M  END
