 xtb: 6.7.1 (edcfbbe)
          04092505213D

 41 40  0     0  0            999 V2000
    1.4653    0.1338   -3.6253 C   0  0  0  0  0  0  0  0  0  0  0  0
    2.3535    0.0623   -2.4014 C   0  0  0  0  0  0  0  0  0  0  0  0
    1.6074   -0.5659   -1.3303 O   0  0  0  0  0  0  0  0  0  0  0  0
    2.1398   -0.4603    0.1595 P   0  0  0  0  0  0  0  0  0  0  0  0
    2.6532    1.3163    0.8225 S   0  0  0  0  0  0  0  0  0  0  0  0
    3.3646   -1.4776    0.0831 O   0  0  0  0  0  0  0  0  0  0  0  0
    4.3998   -1.5175    1.0800 C   0  0  0  0  0  0  0  0  0  0  0  0
    3.8812   -1.9843    2.4246 C   0  0  0  0  0  0  0  0  0  0  0  0
    0.6294   -1.5102    1.1860 S   0  0  0  0  0  0  0  0  0  0  0  0
   -0.0492   -0.1633    2.2173 C   0  0  0  0  0  0  0  0  0  0  0  0
   -1.8476   -0.0028    2.0807 S   0  0  0  0  0  0  0  0  0  0  0  0
   -1.9857    0.4078    0.0198 P   0  0  0  0  0  0  0  0  0  0  0  0
   -0.6473    1.6368   -0.7330 S   0  0  0  0  0  0  0  0  0  0  0  0
   -3.4865    0.8957   -0.1456 O   0  0  0  0  0  0  0  0  0  0  0  0
   -3.8984    2.2354    0.1909 C   0  0  0  0  0  0  0  0  0  0  0  0
   -5.2027    2.5163   -0.5278 C   0  0  0  0  0  0  0  0  0  0  0  0
   -2.0583   -1.0544   -0.5704 O   0  0  0  0  0  0  0  0  0  0  0  0
   -1.7348   -1.3805   -1.9381 C   0  0  0  0  0  0  0  0  0  0  0  0
   -2.6658   -0.6947   -2.9145 C   0  0  0  0  0  0  0  0  0  0  0  0
    0.5867    0.7363   -3.4080 H   0  0  0  0  0  0  0  0  0  0  0  0
    2.0198    0.5961   -4.4354 H   0  0  0  0  0  0  0  0  0  0  0  0
    1.1543   -0.8634   -3.9230 H   0  0  0  0  0  0  0  0  0  0  0  0
    2.6510    1.0635   -2.0706 H   0  0  0  0  0  0  0  0  0  0  0  0
    3.2480   -0.5383   -2.5843 H   0  0  0  0  0  0  0  0  0  0  0  0
    5.1336   -2.2104    0.6664 H   0  0  0  0  0  0  0  0  0  0  0  0
    4.8347   -0.5164    1.1634 H   0  0  0  0  0  0  0  0  0  0  0  0
    4.7161   -2.1154    3.1054 H   0  0  0  0  0  0  0  0  0  0  0  0
    3.2033   -1.2380    2.8372 H   0  0  0  0  0  0  0  0  0  0  0  0
    3.3475   -2.9254    2.3190 H   0  0  0  0  0  0  0  0  0  0  0  0
    0.4359    0.7734    1.9275 H   0  0  0  0  0  0  0  0  0  0  0  0
    0.1431   -0.3966    3.2615 H   0  0  0  0  0  0  0  0  0  0  0  0
   -4.0197    2.2911    1.2759 H   0  0  0  0  0  0  0  0  0  0  0  0
   -3.1107    2.9314   -0.1176 H   0  0  0  0  0  0  0  0  0  0  0  0
   -5.5494    3.5089   -0.2601 H   0  0  0  0  0  0  0  0  0  0  0  0
   -5.0578    2.4651   -1.6032 H   0  0  0  0  0  0  0  0  0  0  0  0
   -5.9487    1.7826   -0.2370 H   0  0  0  0  0  0  0  0  0  0  0  0
   -0.6938   -1.0991   -2.1207 H   0  0  0  0  0  0  0  0  0  0  0  0
   -1.8340   -2.4664   -1.9712 H   0  0  0  0  0  0  0  0  0  0  0  0
   -2.5347    0.3854   -2.8501 H   0  0  0  0  0  0  0  0  0  0  0  0
   -2.4359   -1.0197   -3.9244 H   0  0  0  0  0  0  0  0  0  0  0  0
   -3.6989   -0.9367   -2.6795 H   0  0  0  0  0  0  0  0  0  0  0  0
  1  2  1  0  0  0  0
  2  3  1  0  0  0  0
  3  4  2  0  0  0  0
  4  5  2  0  0  0  0
  4  6  2  0  0  0  0
  6  7  1  0  0  0  0
  7  8  1  0  0  0  0
  4  9  1  0  0  0  0
  9 10  1  0  0  0  0
 10 11  1  0  0  0  0
 11 12  1  0  0  0  0
 12 13  2  0  0  0  0
 12 14  2  0  0  0  0
 14 15  1  0  0  0  0
 15 16  1  0  0  0  0
 12 17  2  0  0  0  0
 17 18  1  0  0  0  0
 18 19  1  0  0  0  0
  1 20  1  0  0  0  0
  1 21  1  0  0  0  0
  1 22  1  0  0  0  0
  2 23  1  0  0  0  0
  2 24  1  0  0  0  0
  7 25  1  0  0  0  0
  7 26  1  0  0  0  0
  8 27  1  0  0  0  0
  8 28  1  0  0  0  0
  8 29  1  0  0  0  0
 10 30  1  0  0  0  0
 10 31  1  0  0  0  0
 15 32  1  0  0  0  0
 15 33  1  0  0  0  0
 16 34  1  0  0  0  0
 16 35  1  0  0  0  0
 16 36  1  0  0  0  0
 18 37  1  0  0  0  0
 18 38  1  0  0  0  0
 19 39  1  0  0  0  0
 19 40  1  0  0  0  0
 19 41  1  0  0  0  0
M  END
