 xtb: 6.7.1 (edcfbbe)
          04092505213D

 41 40  0     0  0            999 V2000
    6.1294   -1.3900   -0.1577 C   0  0  0  0  0  0  0  0  0  0  0  0
    4.6713   -1.4408   -0.5659 C   0  0  0  0  0  0  0  0  0  0  0  0
    4.0497   -0.2106   -0.1345 O   0  0  0  0  0  0  0  0  0  0  0  0
    2.6311    0.2258   -0.6930 P   0  0  0  0  0  0  0  0  0  0  0  0
    2.4479    0.2878   -2.6432 S   0  0  0  0  0  0  0  0  0  0  0  0
    2.4240    1.6483   -0.0562 O   0  0  0  0  0  0  0  0  0  0  0  0
    2.8945    2.0874    1.2437 C   0  0  0  0  0  0  0  0  0  0  0  0
    2.2287    1.3444    2.3818 C   0  0  0  0  0  0  0  0  0  0  0  0
    1.2979   -1.1678    0.2181 S   0  0  0  0  0  0  0  0  0  0  0  0
   -0.1388   -0.7393   -0.7776 C   0  0  0  0  0  0  0  0  0  0  0  0
   -0.8501    0.8696   -0.2742 S   0  0  0  0  0  0  0  0  0  0  0  0
   -2.8003    0.2049    0.1929 P   0  0  0  0  0  0  0  0  0  0  0  0
   -4.0251    1.5190    0.9696 S   0  0  0  0  0  0  0  0  0  0  0  0
   -2.6204   -1.1375    1.0358 O   0  0  0  0  0  0  0  0  0  0  0  0
   -2.5782   -1.1377    2.4728 C   0  0  0  0  0  0  0  0  0  0  0  0
   -1.3147   -0.4893    3.0001 C   0  0  0  0  0  0  0  0  0  0  0  0
   -3.1901   -0.3776   -1.2326 O   0  0  0  0  0  0  0  0  0  0  0  0
   -4.5642   -0.5894   -1.6186 C   0  0  0  0  0  0  0  0  0  0  0  0
   -5.2136   -1.7003   -0.8205 C   0  0  0  0  0  0  0  0  0  0  0  0
    6.6162   -2.3096   -0.4653 H   0  0  0  0  0  0  0  0  0  0  0  0
    6.6223   -0.5477   -0.6350 H   0  0  0  0  0  0  0  0  0  0  0  0
    6.2112   -1.2830    0.9199 H   0  0  0  0  0  0  0  0  0  0  0  0
    4.1487   -2.2719   -0.0857 H   0  0  0  0  0  0  0  0  0  0  0  0
    4.5590   -1.5250   -1.6516 H   0  0  0  0  0  0  0  0  0  0  0  0
    3.9786    1.9662    1.2723 H   0  0  0  0  0  0  0  0  0  0  0  0
    2.6355    3.1473    1.2510 H   0  0  0  0  0  0  0  0  0  0  0  0
    1.1475    1.4031    2.2836 H   0  0  0  0  0  0  0  0  0  0  0  0
    2.5295    0.2990    2.3835 H   0  0  0  0  0  0  0  0  0  0  0  0
    2.5250    1.7997    3.3215 H   0  0  0  0  0  0  0  0  0  0  0  0
   -0.8812   -1.5199   -0.6398 H   0  0  0  0  0  0  0  0  0  0  0  0
    0.1698   -0.6573   -1.8207 H   0  0  0  0  0  0  0  0  0  0  0  0
   -3.4636   -0.6114    2.8433 H   0  0  0  0  0  0  0  0  0  0  0  0
   -2.6316   -2.1945    2.7374 H   0  0  0  0  0  0  0  0  0  0  0  0
   -0.4353   -0.9681    2.5744 H   0  0  0  0  0  0  0  0  0  0  0  0
   -1.3106    0.5684    2.7358 H   0  0  0  0  0  0  0  0  0  0  0  0
   -1.2860   -0.5808    4.0809 H   0  0  0  0  0  0  0  0  0  0  0  0
   -5.1086    0.3507   -1.4850 H   0  0  0  0  0  0  0  0  0  0  0  0
   -4.5003   -0.8335   -2.6799 H   0  0  0  0  0  0  0  0  0  0  0  0
   -4.6191   -2.6080   -0.8829 H   0  0  0  0  0  0  0  0  0  0  0  0
   -5.2993   -1.4035    0.2239 H   0  0  0  0  0  0  0  0  0  0  0  0
   -6.2067   -1.8908   -1.2150 H   0  0  0  0  0  0  0  0  0  0  0  0
  1  2  1  0  0  0  0
  2  3  1  0  0  0  0
  3  4  2  0  0  0  0
  4  5  2  0  0  0  0
  4  6  2  0  0  0  0
  6  7  1  0  0  0  0
  7  8  1  0  0  0  0
  4  9  1  0  0  0  0
  9 10  1  0  0  0  0
 10 11  1  0  0  0  0
 11 12  1  0  0  0  0
 12 13  2  0  0  0  0
 12 14  2  0  0  0  0
 14 15  1  0  0  0  0
 15 16  1  0  0  0  0
 12 17  2  0  0  0  0
 17 18  1  0  0  0  0
 18 19  1  0  0  0  0
  1 20  1  0  0  0  0
  1 21  1  0  0  0  0
  1 22  1  0  0  0  0
  2 23  1  0  0  0  0
  2 24  1  0  0  0  0
  7 25  1  0  0  0  0
  7 26  1  0  0  0  0
  8 27  1  0  0  0  0
  8 28  1  0  0  0  0
  8 29  1  0  0  0  0
 10 30  1  0  0  0  0
 10 31  1  0  0  0  0
 15 32  1  0  0  0  0
 15 33  1  0  0  0  0
 16 34  1  0  0  0  0
 16 35  1  0  0  0  0
 16 36  1  0  0  0  0
 18 37  1  0  0  0  0
 18 38  1  0  0  0  0
 19 39  1  0  0  0  0
 19 40  1  0  0  0  0
 19 41  1  0  0  0  0
M  END
