 xtb: 6.7.1 (edcfbbe)
          04092505213D

 41 40  0     0  0            999 V2000
    5.0730   -2.6206   -0.7420 C   0  0  0  0  0  0  0  0  0  0  0  0
    4.0954   -1.5814   -1.2531 C   0  0  0  0  0  0  0  0  0  0  0  0
    2.9924   -1.5123   -0.3271 O   0  0  0  0  0  0  0  0  0  0  0  0
    2.0886   -0.2137   -0.1717 P   0  0  0  0  0  0  0  0  0  0  0  0
    3.1048    1.4649   -0.1001 S   0  0  0  0  0  0  0  0  0  0  0  0
    1.2200   -0.6069    1.0897 O   0  0  0  0  0  0  0  0  0  0  0  0
    1.6750   -0.3413    2.4399 C   0  0  0  0  0  0  0  0  0  0  0  0
    1.0457    0.9297    2.9727 C   0  0  0  0  0  0  0  0  0  0  0  0
    0.6732   -0.4109   -1.7249 S   0  0  0  0  0  0  0  0  0  0  0  0
    0.1057    1.3133   -1.7174 C   0  0  0  0  0  0  0  0  0  0  0  0
   -0.6533    1.7949   -0.1530 S   0  0  0  0  0  0  0  0  0  0  0  0
   -2.3193    0.4588   -0.2524 P   0  0  0  0  0  0  0  0  0  0  0  0
   -3.0145    0.0683   -2.0342 S   0  0  0  0  0  0  0  0  0  0  0  0
   -3.3867    1.1824    0.6531 O   0  0  0  0  0  0  0  0  0  0  0  0
   -3.1341    1.7885    1.9440 C   0  0  0  0  0  0  0  0  0  0  0  0
   -3.1604    0.7629    3.0585 C   0  0  0  0  0  0  0  0  0  0  0  0
   -1.8771   -0.8144    0.6007 O   0  0  0  0  0  0  0  0  0  0  0  0
   -1.6602   -2.1314    0.0704 C   0  0  0  0  0  0  0  0  0  0  0  0
   -2.7118   -3.0732    0.6226 C   0  0  0  0  0  0  0  0  0  0  0  0
    5.4652   -2.3232    0.2265 H   0  0  0  0  0  0  0  0  0  0  0  0
    4.5741   -3.5801   -0.6412 H   0  0  0  0  0  0  0  0  0  0  0  0
    5.8931   -2.7134   -1.4464 H   0  0  0  0  0  0  0  0  0  0  0  0
    3.6960   -1.8560   -2.2325 H   0  0  0  0  0  0  0  0  0  0  0  0
    4.5602   -0.5917   -1.3181 H   0  0  0  0  0  0  0  0  0  0  0  0
    1.3617   -1.2157    3.0123 H   0  0  0  0  0  0  0  0  0  0  0  0
    2.7659   -0.2702    2.4437 H   0  0  0  0  0  0  0  0  0  0  0  0
    1.3779    1.7871    2.3910 H   0  0  0  0  0  0  0  0  0  0  0  0
   -0.0368    0.8657    2.9070 H   0  0  0  0  0  0  0  0  0  0  0  0
    1.3374    1.0669    4.0089 H   0  0  0  0  0  0  0  0  0  0  0  0
   -0.6204    1.4004   -2.5252 H   0  0  0  0  0  0  0  0  0  0  0  0
    0.9556    1.9787   -1.8665 H   0  0  0  0  0  0  0  0  0  0  0  0
   -2.1742    2.3113    1.9026 H   0  0  0  0  0  0  0  0  0  0  0  0
   -3.9414    2.5151    2.0507 H   0  0  0  0  0  0  0  0  0  0  0  0
   -3.0245    1.2695    4.0090 H   0  0  0  0  0  0  0  0  0  0  0  0
   -4.1140    0.2420    3.0625 H   0  0  0  0  0  0  0  0  0  0  0  0
   -2.3659    0.0338    2.9219 H   0  0  0  0  0  0  0  0  0  0  0  0
   -1.7090   -2.0935   -1.0230 H   0  0  0  0  0  0  0  0  0  0  0  0
   -0.6526   -2.4212    0.3779 H   0  0  0  0  0  0  0  0  0  0  0  0
   -3.6989   -2.7568    0.2926 H   0  0  0  0  0  0  0  0  0  0  0  0
   -2.5187   -4.0761    0.2560 H   0  0  0  0  0  0  0  0  0  0  0  0
   -2.6850   -3.0741    1.7085 H   0  0  0  0  0  0  0  0  0  0  0  0
  1  2  1  0  0  0  0
  2  3  1  0  0  0  0
  3  4  2  0  0  0  0
  4  5  2  0  0  0  0
  4  6  2  0  0  0  0
  6  7  1  0  0  0  0
  7  8  1  0  0  0  0
  4  9  1  0  0  0  0
  9 10  1  0  0  0  0
 10 11  1  0  0  0  0
 11 12  1  0  0  0  0
 12 13  2  0  0  0  0
 12 14  2  0  0  0  0
 14 15  1  0  0  0  0
 15 16  1  0  0  0  0
 12 17  2  0  0  0  0
 17 18  1  0  0  0  0
 18 19  1  0  0  0  0
  1 20  1  0  0  0  0
  1 21  1  0  0  0  0
  1 22  1  0  0  0  0
  2 23  1  0  0  0  0
  2 24  1  0  0  0  0
  7 25  1  0  0  0  0
  7 26  1  0  0  0  0
  8 27  1  0  0  0  0
  8 28  1  0  0  0  0
  8 29  1  0  0  0  0
 10 30  1  0  0  0  0
 10 31  1  0  0  0  0
 15 32  1  0  0  0  0
 15 33  1  0  0  0  0
 16 34  1  0  0  0  0
 16 35  1  0  0  0  0
 16 36  1  0  0  0  0
 18 37  1  0  0  0  0
 18 38  1  0  0  0  0
 19 39  1  0  0  0  0
 19 40  1  0  0  0  0
 19 41  1  0  0  0  0
M  END
