 xtb: 6.7.1 (edcfbbe)
          04092505213D

 41 40  0     0  0            999 V2000
    1.3511    1.4872    2.8347 C   0  0  0  0  0  0  0  0  0  0  0  0
    2.8265    1.2072    2.6332 C   0  0  0  0  0  0  0  0  0  0  0  0
    3.1800    1.1470    1.2386 O   0  0  0  0  0  0  0  0  0  0  0  0
    2.8582   -0.1125    0.3356 P   0  0  0  0  0  0  0  0  0  0  0  0
    2.9375   -1.8566    1.2377 S   0  0  0  0  0  0  0  0  0  0  0  0
    3.9803    0.1712   -0.7457 O   0  0  0  0  0  0  0  0  0  0  0  0
    4.4669   -0.8484   -1.6358 C   0  0  0  0  0  0  0  0  0  0  0  0
    3.4112   -1.3207   -2.6162 C   0  0  0  0  0  0  0  0  0  0  0  0
    1.0391    0.3421   -0.6883 S   0  0  0  0  0  0  0  0  0  0  0  0
   -0.0068   -1.0198   -0.0895 C   0  0  0  0  0  0  0  0  0  0  0  0
   -1.3623   -0.4512    0.9503 S   0  0  0  0  0  0  0  0  0  0  0  0
   -2.6462    0.1404   -0.6510 P   0  0  0  0  0  0  0  0  0  0  0  0
   -2.6205   -1.0856   -2.1798 S   0  0  0  0  0  0  0  0  0  0  0  0
   -2.2418    1.5739   -1.1658 O   0  0  0  0  0  0  0  0  0  0  0  0
   -2.4340    2.8350   -0.4808 C   0  0  0  0  0  0  0  0  0  0  0  0
   -1.3996    3.0564    0.6040 C   0  0  0  0  0  0  0  0  0  0  0  0
   -4.0261    0.4340    0.0769 O   0  0  0  0  0  0  0  0  0  0  0  0
   -4.6644   -0.4413    1.0263 C   0  0  0  0  0  0  0  0  0  0  0  0
   -4.8978   -1.8315    0.4739 C   0  0  0  0  0  0  0  0  0  0  0  0
    1.1553    1.6255    3.8931 H   0  0  0  0  0  0  0  0  0  0  0  0
    1.0630    2.3856    2.2959 H   0  0  0  0  0  0  0  0  0  0  0  0
    0.7531    0.6496    2.4764 H   0  0  0  0  0  0  0  0  0  0  0  0
    3.1111    0.2623    3.1078 H   0  0  0  0  0  0  0  0  0  0  0  0
    3.4447    2.0165    3.0244 H   0  0  0  0  0  0  0  0  0  0  0  0
    5.3018   -0.3681   -2.1481 H   0  0  0  0  0  0  0  0  0  0  0  0
    4.8339   -1.6869   -1.0352 H   0  0  0  0  0  0  0  0  0  0  0  0
    3.8684   -1.9858   -3.3419 H   0  0  0  0  0  0  0  0  0  0  0  0
    2.6256   -1.8635   -2.0912 H   0  0  0  0  0  0  0  0  0  0  0  0
    2.9674   -0.4739   -3.1343 H   0  0  0  0  0  0  0  0  0  0  0  0
    0.6054   -1.7028    0.5045 H   0  0  0  0  0  0  0  0  0  0  0  0
   -0.4342   -1.5239   -0.9588 H   0  0  0  0  0  0  0  0  0  0  0  0
   -2.3329    3.5694   -1.2816 H   0  0  0  0  0  0  0  0  0  0  0  0
   -3.4474    2.8622   -0.0771 H   0  0  0  0  0  0  0  0  0  0  0  0
   -1.4869    4.0740    0.9720 H   0  0  0  0  0  0  0  0  0  0  0  0
   -1.5538    2.3660    1.4299 H   0  0  0  0  0  0  0  0  0  0  0  0
   -0.4021    2.9069    0.1964 H   0  0  0  0  0  0  0  0  0  0  0  0
   -4.0431   -0.4815    1.9250 H   0  0  0  0  0  0  0  0  0  0  0  0
   -5.6066    0.0638    1.2463 H   0  0  0  0  0  0  0  0  0  0  0  0
   -5.4570   -1.7816   -0.4575 H   0  0  0  0  0  0  0  0  0  0  0  0
   -3.9462   -2.3227    0.2757 H   0  0  0  0  0  0  0  0  0  0  0  0
   -5.4546   -2.4186    1.1971 H   0  0  0  0  0  0  0  0  0  0  0  0
  1  2  1  0  0  0  0
  2  3  1  0  0  0  0
  3  4  2  0  0  0  0
  4  5  2  0  0  0  0
  4  6  2  0  0  0  0
  6  7  1  0  0  0  0
  7  8  1  0  0  0  0
  4  9  1  0  0  0  0
  9 10  1  0  0  0  0
 10 11  1  0  0  0  0
 11 12  1  0  0  0  0
 12 13  2  0  0  0  0
 12 14  2  0  0  0  0
 14 15  1  0  0  0  0
 15 16  1  0  0  0  0
 12 17  2  0  0  0  0
 17 18  1  0  0  0  0
 18 19  1  0  0  0  0
  1 20  1  0  0  0  0
  1 21  1  0  0  0  0
  1 22  1  0  0  0  0
  2 23  1  0  0  0  0
  2 24  1  0  0  0  0
  7 25  1  0  0  0  0
  7 26  1  0  0  0  0
  8 27  1  0  0  0  0
  8 28  1  0  0  0  0
  8 29  1  0  0  0  0
 10 30  1  0  0  0  0
 10 31  1  0  0  0  0
 15 32  1  0  0  0  0
 15 33  1  0  0  0  0
 16 34  1  0  0  0  0
 16 35  1  0  0  0  0
 16 36  1  0  0  0  0
 18 37  1  0  0  0  0
 18 38  1  0  0  0  0
 19 39  1  0  0  0  0
 19 40  1  0  0  0  0
 19 41  1  0  0  0  0
M  END
