 xtb: 6.7.1 (edcfbbe)
          04092505213D

 41 40  0     0  0            999 V2000
    1.8685    2.7802   -0.3211 C   0  0  0  0  0  0  0  0  0  0  0  0
    2.7314    2.5207    0.8963 C   0  0  0  0  0  0  0  0  0  0  0  0
    3.0957    1.1339    1.0186 O   0  0  0  0  0  0  0  0  0  0  0  0
    2.0270   -0.0112    1.2931 P   0  0  0  0  0  0  0  0  0  0  0  0
    0.5980    0.4204    2.5560 S   0  0  0  0  0  0  0  0  0  0  0  0
    2.9226   -1.1824    1.8574 O   0  0  0  0  0  0  0  0  0  0  0  0
    4.1500   -1.6404    1.2294 C   0  0  0  0  0  0  0  0  0  0  0  0
    3.9296   -2.9677    0.5311 C   0  0  0  0  0  0  0  0  0  0  0  0
    1.4452   -0.6332   -0.6574 S   0  0  0  0  0  0  0  0  0  0  0  0
    0.1514   -1.7966   -0.1199 C   0  0  0  0  0  0  0  0  0  0  0  0
   -1.2494   -1.8812   -1.2708 S   0  0  0  0  0  0  0  0  0  0  0  0
   -2.1930   -0.0316   -0.9291 P   0  0  0  0  0  0  0  0  0  0  0  0
   -3.9152    0.2319   -1.8242 S   0  0  0  0  0  0  0  0  0  0  0  0
   -1.1392    1.1311   -1.2409 O   0  0  0  0  0  0  0  0  0  0  0  0
   -1.0585    1.7343   -2.5440 C   0  0  0  0  0  0  0  0  0  0  0  0
   -0.4659    0.7851   -3.5657 C   0  0  0  0  0  0  0  0  0  0  0  0
   -2.1779   -0.0437    0.6557 O   0  0  0  0  0  0  0  0  0  0  0  0
   -2.8111    1.0062    1.4213 C   0  0  0  0  0  0  0  0  0  0  0  0
   -4.1880    0.5706    1.8777 C   0  0  0  0  0  0  0  0  0  0  0  0
    1.7146    3.8493   -0.4286 H   0  0  0  0  0  0  0  0  0  0  0  0
    2.3495    2.3909   -1.2153 H   0  0  0  0  0  0  0  0  0  0  0  0
    0.9011    2.2943   -0.1987 H   0  0  0  0  0  0  0  0  0  0  0  0
    2.2100    2.8223    1.8100 H   0  0  0  0  0  0  0  0  0  0  0  0
    3.6910    3.0353    0.8293 H   0  0  0  0  0  0  0  0  0  0  0  0
    4.5038   -0.8760    0.5359 H   0  0  0  0  0  0  0  0  0  0  0  0
    4.8552   -1.7415    2.0558 H   0  0  0  0  0  0  0  0  0  0  0  0
    3.2861   -2.8466   -0.3367 H   0  0  0  0  0  0  0  0  0  0  0  0
    4.8891   -3.3556    0.2037 H   0  0  0  0  0  0  0  0  0  0  0  0
    3.4751   -3.6778    1.2169 H   0  0  0  0  0  0  0  0  0  0  0  0
   -0.2052   -1.4918    0.8648 H   0  0  0  0  0  0  0  0  0  0  0  0
    0.5573   -2.8054   -0.1019 H   0  0  0  0  0  0  0  0  0  0  0  0
   -2.0662    2.0410   -2.8430 H   0  0  0  0  0  0  0  0  0  0  0  0
   -0.4296    2.6125   -2.3940 H   0  0  0  0  0  0  0  0  0  0  0  0
   -1.1361   -0.0613   -3.7157 H   0  0  0  0  0  0  0  0  0  0  0  0
   -0.3408    1.3063   -4.5091 H   0  0  0  0  0  0  0  0  0  0  0  0
    0.4975    0.4133   -3.2248 H   0  0  0  0  0  0  0  0  0  0  0  0
   -2.1383    1.1731    2.2658 H   0  0  0  0  0  0  0  0  0  0  0  0
   -2.8649    1.9122    0.8119 H   0  0  0  0  0  0  0  0  0  0  0  0
   -4.1163   -0.3508    2.4489 H   0  0  0  0  0  0  0  0  0  0  0  0
   -4.6195    1.3475    2.5006 H   0  0  0  0  0  0  0  0  0  0  0  0
   -4.8328    0.4029    1.0173 H   0  0  0  0  0  0  0  0  0  0  0  0
  1  2  1  0  0  0  0
  2  3  1  0  0  0  0
  3  4  2  0  0  0  0
  4  5  2  0  0  0  0
  4  6  2  0  0  0  0
  6  7  1  0  0  0  0
  7  8  1  0  0  0  0
  4  9  1  0  0  0  0
  9 10  1  0  0  0  0
 10 11  1  0  0  0  0
 11 12  1  0  0  0  0
 12 13  2  0  0  0  0
 12 14  1  0  0  0  0
 14 15  1  0  0  0  0
 15 16  1  0  0  0  0
 12 17  2  0  0  0  0
 17 18  1  0  0  0  0
 18 19  1  0  0  0  0
  1 20  1  0  0  0  0
  1 21  1  0  0  0  0
  1 22  1  0  0  0  0
  2 23  1  0  0  0  0
  2 24  1  0  0  0  0
  7 25  1  0  0  0  0
  7 26  1  0  0  0  0
  8 27  1  0  0  0  0
  8 28  1  0  0  0  0
  8 29  1  0  0  0  0
 10 30  1  0  0  0  0
 10 31  1  0  0  0  0
 15 32  1  0  0  0  0
 15 33  1  0  0  0  0
 16 34  1  0  0  0  0
 16 35  1  0  0  0  0
 16 36  1  0  0  0  0
 18 37  1  0  0  0  0
 18 38  1  0  0  0  0
 19 39  1  0  0  0  0
 19 40  1  0  0  0  0
 19 41  1  0  0  0  0
M  END
