 xtb: 6.7.1 (edcfbbe)
          04092505213D

 41 40  0     0  0            999 V2000
    5.4899   -0.3494   -1.9182 C   0  0  0  0  0  0  0  0  0  0  0  0
    3.9868   -0.5225   -1.8322 C   0  0  0  0  0  0  0  0  0  0  0  0
    3.5850   -0.2387   -0.4799 O   0  0  0  0  0  0  0  0  0  0  0  0
    2.0525   -0.0416   -0.0873 P   0  0  0  0  0  0  0  0  0  0  0  0
    1.1413    1.2763   -1.2226 S   0  0  0  0  0  0  0  0  0  0  0  0
    2.1984    0.2314    1.4566 O   0  0  0  0  0  0  0  0  0  0  0  0
    2.2576    1.5594    2.0159 C   0  0  0  0  0  0  0  0  0  0  0  0
    3.5117    2.2930    1.5918 C   0  0  0  0  0  0  0  0  0  0  0  0
    1.2996   -2.0188   -0.1065 S   0  0  0  0  0  0  0  0  0  0  0  0
   -0.0468   -1.8662   -1.3311 C   0  0  0  0  0  0  0  0  0  0  0  0
   -1.7099   -2.1309   -0.6553 S   0  0  0  0  0  0  0  0  0  0  0  0
   -2.1076   -0.2063    0.1196 P   0  0  0  0  0  0  0  0  0  0  0  0
   -0.9738    0.3734    1.6217 S   0  0  0  0  0  0  0  0  0  0  0  0
   -3.6494   -0.2646    0.4845 O   0  0  0  0  0  0  0  0  0  0  0  0
   -4.1469   -0.6882    1.7687 C   0  0  0  0  0  0  0  0  0  0  0  0
   -5.3777    0.1338    2.0971 C   0  0  0  0  0  0  0  0  0  0  0  0
   -2.1064    0.6224   -1.2239 O   0  0  0  0  0  0  0  0  0  0  0  0
   -2.8006    1.8743   -1.4224 C   0  0  0  0  0  0  0  0  0  0  0  0
   -2.2956    2.9633   -0.5006 C   0  0  0  0  0  0  0  0  0  0  0  0
    5.7627    0.6756   -1.6839 H   0  0  0  0  0  0  0  0  0  0  0  0
    5.9782   -1.0138   -1.2113 H   0  0  0  0  0  0  0  0  0  0  0  0
    5.8189   -0.5876   -2.9242 H   0  0  0  0  0  0  0  0  0  0  0  0
    3.6898   -1.5483   -2.0705 H   0  0  0  0  0  0  0  0  0  0  0  0
    3.4634    0.1674   -2.5035 H   0  0  0  0  0  0  0  0  0  0  0  0
    1.3570    2.1028    1.7123 H   0  0  0  0  0  0  0  0  0  0  0  0
    2.2252    1.3851    3.0921 H   0  0  0  0  0  0  0  0  0  0  0  0
    3.5555    3.2519    2.0987 H   0  0  0  0  0  0  0  0  0  0  0  0
    4.3908    1.7057    1.8434 H   0  0  0  0  0  0  0  0  0  0  0  0
    3.4951    2.4600    0.5151 H   0  0  0  0  0  0  0  0  0  0  0  0
    0.0949   -2.6555   -2.0638 H   0  0  0  0  0  0  0  0  0  0  0  0
    0.0015   -0.8763   -1.7918 H   0  0  0  0  0  0  0  0  0  0  0  0
   -4.3841   -1.7517    1.6938 H   0  0  0  0  0  0  0  0  0  0  0  0
   -3.3593   -0.5436    2.5162 H   0  0  0  0  0  0  0  0  0  0  0  0
   -6.1239    0.0126    1.3172 H   0  0  0  0  0  0  0  0  0  0  0  0
   -5.7877   -0.2050    3.0428 H   0  0  0  0  0  0  0  0  0  0  0  0
   -5.1171    1.1858    2.1779 H   0  0  0  0  0  0  0  0  0  0  0  0
   -2.5946    2.1107   -2.4675 H   0  0  0  0  0  0  0  0  0  0  0  0
   -3.8682    1.6963   -1.2778 H   0  0  0  0  0  0  0  0  0  0  0  0
   -2.4959    2.7008    0.5376 H   0  0  0  0  0  0  0  0  0  0  0  0
   -1.2213    3.0856   -0.6250 H   0  0  0  0  0  0  0  0  0  0  0  0
   -2.7935    3.8983   -0.7362 H   0  0  0  0  0  0  0  0  0  0  0  0
  1  2  1  0  0  0  0
  2  3  1  0  0  0  0
  3  4  2  0  0  0  0
  4  5  2  0  0  0  0
  4  6  2  0  0  0  0
  6  7  1  0  0  0  0
  7  8  1  0  0  0  0
  4  9  1  0  0  0  0
  9 10  1  0  0  0  0
 10 11  1  0  0  0  0
 11 12  1  0  0  0  0
 12 13  2  0  0  0  0
 12 14  2  0  0  0  0
 14 15  1  0  0  0  0
 15 16  1  0  0  0  0
 12 17  2  0  0  0  0
 17 18  1  0  0  0  0
 18 19  1  0  0  0  0
  1 20  1  0  0  0  0
  1 21  1  0  0  0  0
  1 22  1  0  0  0  0
  2 23  1  0  0  0  0
  2 24  1  0  0  0  0
  7 25  1  0  0  0  0
  7 26  1  0  0  0  0
  8 27  1  0  0  0  0
  8 28  1  0  0  0  0
  8 29  1  0  0  0  0
 10 30  1  0  0  0  0
 10 31  1  0  0  0  0
 15 32  1  0  0  0  0
 15 33  1  0  0  0  0
 16 34  1  0  0  0  0
 16 35  1  0  0  0  0
 16 36  1  0  0  0  0
 18 37  1  0  0  0  0
 18 38  1  0  0  0  0
 19 39  1  0  0  0  0
 19 40  1  0  0  0  0
 19 41  1  0  0  0  0
M  END
