 xtb: 6.7.1 (edcfbbe)
          04092505203D

 41 40  0     0  0            999 V2000
    5.1840   -0.8802   -1.4349 C   0  0  0  0  0  0  0  0  0  0  0  0
    4.6572   -0.3392   -0.1212 C   0  0  0  0  0  0  0  0  0  0  0  0
    3.5723    0.5958   -0.3482 O   0  0  0  0  0  0  0  0  0  0  0  0
    2.0440    0.2130   -0.1868 P   0  0  0  0  0  0  0  0  0  0  0  0
    0.9191    1.7908   -0.4425 S   0  0  0  0  0  0  0  0  0  0  0  0
    1.9118   -0.5461    1.2155 O   0  0  0  0  0  0  0  0  0  0  0  0
    1.5105    0.1100    2.4313 C   0  0  0  0  0  0  0  0  0  0  0  0
    2.5537    1.1035    2.9009 C   0  0  0  0  0  0  0  0  0  0  0  0
    1.7600   -1.4304   -1.4753 S   0  0  0  0  0  0  0  0  0  0  0  0
   -0.0452   -1.4223   -1.5640 C   0  0  0  0  0  0  0  0  0  0  0  0
   -0.8604   -1.6354    0.0573 S   0  0  0  0  0  0  0  0  0  0  0  0
   -2.2001   -0.0135    0.0059 P   0  0  0  0  0  0  0  0  0  0  0  0
   -2.4527    0.9334   -1.6979 S   0  0  0  0  0  0  0  0  0  0  0  0
   -1.6745    0.8261    1.2426 O   0  0  0  0  0  0  0  0  0  0  0  0
   -2.2912    2.0931    1.5737 C   0  0  0  0  0  0  0  0  0  0  0  0
   -1.3633    2.8435    2.5055 C   0  0  0  0  0  0  0  0  0  0  0  0
   -3.5602   -0.5789    0.6163 O   0  0  0  0  0  0  0  0  0  0  0  0
   -4.5971   -1.1473   -0.2014 C   0  0  0  0  0  0  0  0  0  0  0  0
   -4.1586   -2.4365   -0.8653 C   0  0  0  0  0  0  0  0  0  0  0  0
    4.4261   -1.4816   -1.9323 H   0  0  0  0  0  0  0  0  0  0  0  0
    5.4643   -0.0587   -2.0883 H   0  0  0  0  0  0  0  0  0  0  0  0
    6.0558   -1.4965   -1.2391 H   0  0  0  0  0  0  0  0  0  0  0  0
    5.4171    0.2502    0.3951 H   0  0  0  0  0  0  0  0  0  0  0  0
    4.3046   -1.1443    0.5278 H   0  0  0  0  0  0  0  0  0  0  0  0
    0.5506    0.6045    2.2578 H   0  0  0  0  0  0  0  0  0  0  0  0
    1.3780   -0.7107    3.1381 H   0  0  0  0  0  0  0  0  0  0  0  0
    3.5062    0.6057    3.0637 H   0  0  0  0  0  0  0  0  0  0  0  0
    2.6851    1.8804    2.1473 H   0  0  0  0  0  0  0  0  0  0  0  0
    2.2244    1.5629    3.8276 H   0  0  0  0  0  0  0  0  0  0  0  0
   -0.3044   -2.2690   -2.1951 H   0  0  0  0  0  0  0  0  0  0  0  0
   -0.3926   -0.4828   -2.0035 H   0  0  0  0  0  0  0  0  0  0  0  0
   -2.4529    2.6505    0.6444 H   0  0  0  0  0  0  0  0  0  0  0  0
   -3.2560    1.8846    2.0428 H   0  0  0  0  0  0  0  0  0  0  0  0
   -0.4147    3.0292    2.0075 H   0  0  0  0  0  0  0  0  0  0  0  0
   -1.8185    3.7930    2.7673 H   0  0  0  0  0  0  0  0  0  0  0  0
   -1.1891    2.2641    3.4076 H   0  0  0  0  0  0  0  0  0  0  0  0
   -5.4197   -1.3100    0.4961 H   0  0  0  0  0  0  0  0  0  0  0  0
   -4.8849   -0.4068   -0.9545 H   0  0  0  0  0  0  0  0  0  0  0  0
   -3.7652   -3.1290   -0.1256 H   0  0  0  0  0  0  0  0  0  0  0  0
   -5.0073   -2.8875   -1.3692 H   0  0  0  0  0  0  0  0  0  0  0  0
   -3.3830   -2.2259   -1.6010 H   0  0  0  0  0  0  0  0  0  0  0  0
  1  2  1  0  0  0  0
  2  3  1  0  0  0  0
  3  4  2  0  0  0  0
  4  5  2  0  0  0  0
  4  6  1  0  0  0  0
  6  7  1  0  0  0  0
  7  8  1  0  0  0  0
  4  9  1  0  0  0  0
  9 10  1  0  0  0  0
 10 11  1  0  0  0  0
 11 12  1  0  0  0  0
 12 13  2  0  0  0  0
 12 14  2  0  0  0  0
 14 15  1  0  0  0  0
 15 16  1  0  0  0  0
 12 17  2  0  0  0  0
 17 18  1  0  0  0  0
 18 19  1  0  0  0  0
  1 20  1  0  0  0  0
  1 21  1  0  0  0  0
  1 22  1  0  0  0  0
  2 23  1  0  0  0  0
  2 24  1  0  0  0  0
  7 25  1  0  0  0  0
  7 26  1  0  0  0  0
  8 27  1  0  0  0  0
  8 28  1  0  0  0  0
  8 29  1  0  0  0  0
 10 30  1  0  0  0  0
 10 31  1  0  0  0  0
 15 32  1  0  0  0  0
 15 33  1  0  0  0  0
 16 34  1  0  0  0  0
 16 35  1  0  0  0  0
 16 36  1  0  0  0  0
 18 37  1  0  0  0  0
 18 38  1  0  0  0  0
 19 39  1  0  0  0  0
 19 40  1  0  0  0  0
 19 41  1  0  0  0  0
M  END
