 xtb: 6.7.1 (edcfbbe)
          04092505213D

 41 40  0     0  0            999 V2000
    2.2890   -1.8068   -2.5587 C   0  0  0  0  0  0  0  0  0  0  0  0
    1.6887   -0.4179   -2.5453 C   0  0  0  0  0  0  0  0  0  0  0  0
    2.1545    0.4042   -1.4510 O   0  0  0  0  0  0  0  0  0  0  0  0
    2.2051    0.0293    0.0738 P   0  0  0  0  0  0  0  0  0  0  0  0
    2.2952    1.6491    1.1705 S   0  0  0  0  0  0  0  0  0  0  0  0
    3.5003   -0.8979    0.1065 O   0  0  0  0  0  0  0  0  0  0  0  0
    3.8753   -1.7834    1.1746 C   0  0  0  0  0  0  0  0  0  0  0  0
    4.1418   -1.0585    2.4783 C   0  0  0  0  0  0  0  0  0  0  0  0
    0.6204   -1.3412    0.5215 S   0  0  0  0  0  0  0  0  0  0  0  0
   -0.1502   -0.4686    1.9127 C   0  0  0  0  0  0  0  0  0  0  0  0
   -1.9594   -0.3762    1.7964 S   0  0  0  0  0  0  0  0  0  0  0  0
   -2.1605    0.4084   -0.1392 P   0  0  0  0  0  0  0  0  0  0  0  0
   -0.8101    1.6614   -0.8461 S   0  0  0  0  0  0  0  0  0  0  0  0
   -3.6433    0.9847   -0.1914 O   0  0  0  0  0  0  0  0  0  0  0  0
   -3.9588    2.3478    0.1371 C   0  0  0  0  0  0  0  0  0  0  0  0
   -3.7179    2.6498    1.6020 C   0  0  0  0  0  0  0  0  0  0  0  0
   -2.3259   -0.9487   -0.9324 O   0  0  0  0  0  0  0  0  0  0  0  0
   -2.4084   -1.0090   -2.3749 C   0  0  0  0  0  0  0  0  0  0  0  0
   -1.9070   -2.3705   -2.8119 C   0  0  0  0  0  0  0  0  0  0  0  0
    3.3739   -1.7456   -2.5495 H   0  0  0  0  0  0  0  0  0  0  0  0
    1.9586   -2.3726   -1.6884 H   0  0  0  0  0  0  0  0  0  0  0  0
    1.9651   -2.3206   -3.4590 H   0  0  0  0  0  0  0  0  0  0  0  0
    0.5977   -0.4577   -2.4819 H   0  0  0  0  0  0  0  0  0  0  0  0
    1.9774    0.1570   -3.4267 H   0  0  0  0  0  0  0  0  0  0  0  0
    3.0826   -2.5272    1.2992 H   0  0  0  0  0  0  0  0  0  0  0  0
    4.7792   -2.2668    0.7998 H   0  0  0  0  0  0  0  0  0  0  0  0
    3.2310   -0.5894    2.8463 H   0  0  0  0  0  0  0  0  0  0  0  0
    4.5014   -1.7678    3.2167 H   0  0  0  0  0  0  0  0  0  0  0  0
    4.8872   -0.2805    2.3323 H   0  0  0  0  0  0  0  0  0  0  0  0
    0.2785    0.5383    1.9593 H   0  0  0  0  0  0  0  0  0  0  0  0
    0.0473   -1.0200    2.8290 H   0  0  0  0  0  0  0  0  0  0  0  0
   -3.3530    3.0043   -0.4960 H   0  0  0  0  0  0  0  0  0  0  0  0
   -5.0125    2.4441   -0.1280 H   0  0  0  0  0  0  0  0  0  0  0  0
   -4.2337    1.9254    2.2274 H   0  0  0  0  0  0  0  0  0  0  0  0
   -2.6509    2.6056    1.8199 H   0  0  0  0  0  0  0  0  0  0  0  0
   -4.0795    3.6477    1.8290 H   0  0  0  0  0  0  0  0  0  0  0  0
   -3.4530   -0.8552   -2.6546 H   0  0  0  0  0  0  0  0  0  0  0  0
   -1.8052   -0.1958   -2.7953 H   0  0  0  0  0  0  0  0  0  0  0  0
   -2.5281   -3.1474   -2.3765 H   0  0  0  0  0  0  0  0  0  0  0  0
   -1.9494   -2.4366   -3.8941 H   0  0  0  0  0  0  0  0  0  0  0  0
   -0.8830   -2.5184   -2.4794 H   0  0  0  0  0  0  0  0  0  0  0  0
  1  2  1  0  0  0  0
  2  3  1  0  0  0  0
  3  4  2  0  0  0  0
  4  5  2  0  0  0  0
  4  6  2  0  0  0  0
  6  7  1  0  0  0  0
  7  8  1  0  0  0  0
  4  9  1  0  0  0  0
  9 10  1  0  0  0  0
 10 11  1  0  0  0  0
 11 12  1  0  0  0  0
 12 13  2  0  0  0  0
 12 14  2  0  0  0  0
 14 15  1  0  0  0  0
 15 16  1  0  0  0  0
 12 17  2  0  0  0  0
 17 18  1  0  0  0  0
 18 19  1  0  0  0  0
  1 20  1  0  0  0  0
  1 21  1  0  0  0  0
  1 22  1  0  0  0  0
  2 23  1  0  0  0  0
  2 24  1  0  0  0  0
  7 25  1  0  0  0  0
  7 26  1  0  0  0  0
  8 27  1  0  0  0  0
  8 28  1  0  0  0  0
  8 29  1  0  0  0  0
 10 30  1  0  0  0  0
 10 31  1  0  0  0  0
 15 32  1  0  0  0  0
 15 33  1  0  0  0  0
 16 34  1  0  0  0  0
 16 35  1  0  0  0  0
 16 36  1  0  0  0  0
 18 37  1  0  0  0  0
 18 38  1  0  0  0  0
 19 39  1  0  0  0  0
 19 40  1  0  0  0  0
 19 41  1  0  0  0  0
M  END
