 xtb: 6.7.1 (edcfbbe)
          04092505213D

 41 40  0     0  0            999 V2000
    1.6018   -2.2930    1.9277 C   0  0  0  0  0  0  0  0  0  0  0  0
    2.0678   -0.9000    2.2969 C   0  0  0  0  0  0  0  0  0  0  0  0
    3.0020   -0.3508    1.3502 O   0  0  0  0  0  0  0  0  0  0  0  0
    2.7301   -0.1586   -0.2052 P   0  0  0  0  0  0  0  0  0  0  0  0
    2.8120   -1.7295   -1.3673 S   0  0  0  0  0  0  0  0  0  0  0  0
    3.8682    0.8499   -0.6118 O   0  0  0  0  0  0  0  0  0  0  0  0
    4.0868    2.1257    0.0398 C   0  0  0  0  0  0  0  0  0  0  0  0
    5.1881    2.0179    1.0746 C   0  0  0  0  0  0  0  0  0  0  0  0
    0.9108    0.9888   -0.2717 S   0  0  0  0  0  0  0  0  0  0  0  0
   -0.0450   -0.0656   -1.3849 C   0  0  0  0  0  0  0  0  0  0  0  0
   -1.1899   -1.1580   -0.5100 S   0  0  0  0  0  0  0  0  0  0  0  0
   -2.7287    0.2994   -0.2566 P   0  0  0  0  0  0  0  0  0  0  0  0
   -3.0902    1.4337   -1.8082 S   0  0  0  0  0  0  0  0  0  0  0  0
   -2.2938    1.1523    0.9931 O   0  0  0  0  0  0  0  0  0  0  0  0
   -1.9999    0.5738    2.2917 C   0  0  0  0  0  0  0  0  0  0  0  0
   -1.1314    1.5603    3.0445 C   0  0  0  0  0  0  0  0  0  0  0  0
   -3.9537   -0.5362    0.3165 O   0  0  0  0  0  0  0  0  0  0  0  0
   -4.9245   -1.1826   -0.5272 C   0  0  0  0  0  0  0  0  0  0  0  0
   -4.3120   -2.2689   -1.3869 C   0  0  0  0  0  0  0  0  0  0  0  0
    1.0057   -2.2701    1.0157 H   0  0  0  0  0  0  0  0  0  0  0  0
    2.4553   -2.9455    1.7601 H   0  0  0  0  0  0  0  0  0  0  0  0
    0.9960   -2.6955    2.7334 H   0  0  0  0  0  0  0  0  0  0  0  0
    2.6264   -0.9039    3.2345 H   0  0  0  0  0  0  0  0  0  0  0  0
    1.2186   -0.2155    2.3752 H   0  0  0  0  0  0  0  0  0  0  0  0
    4.3679    2.8010   -0.7704 H   0  0  0  0  0  0  0  0  0  0  0  0
    3.1472    2.4617    0.4871 H   0  0  0  0  0  0  0  0  0  0  0  0
    5.3710    2.9989    1.5019 H   0  0  0  0  0  0  0  0  0  0  0  0
    4.9003    1.3285    1.8634 H   0  0  0  0  0  0  0  0  0  0  0  0
    6.0993    1.6537    0.6083 H   0  0  0  0  0  0  0  0  0  0  0  0
    0.6430   -0.7037   -1.9440 H   0  0  0  0  0  0  0  0  0  0  0  0
   -0.6191    0.5841   -2.0469 H   0  0  0  0  0  0  0  0  0  0  0  0
   -2.9495    0.3987    2.8001 H   0  0  0  0  0  0  0  0  0  0  0  0
   -1.4923   -0.3837    2.1392 H   0  0  0  0  0  0  0  0  0  0  0  0
   -0.2279    1.7696    2.4769 H   0  0  0  0  0  0  0  0  0  0  0  0
   -1.6680    2.4936    3.1876 H   0  0  0  0  0  0  0  0  0  0  0  0
   -0.8695    1.1429    4.0114 H   0  0  0  0  0  0  0  0  0  0  0  0
   -5.6500   -1.5885    0.1793 H   0  0  0  0  0  0  0  0  0  0  0  0
   -5.3987   -0.4200   -1.1522 H   0  0  0  0  0  0  0  0  0  0  0  0
   -5.1016   -2.8019   -1.9068 H   0  0  0  0  0  0  0  0  0  0  0  0
   -3.6429   -1.8278   -2.1246 H   0  0  0  0  0  0  0  0  0  0  0  0
   -3.7475   -2.9671   -0.7737 H   0  0  0  0  0  0  0  0  0  0  0  0
  1  2  1  0  0  0  0
  2  3  1  0  0  0  0
  3  4  2  0  0  0  0
  4  5  2  0  0  0  0
  4  6  2  0  0  0  0
  6  7  1  0  0  0  0
  7  8  1  0  0  0  0
  4  9  1  0  0  0  0
  9 10  1  0  0  0  0
 10 11  1  0  0  0  0
 11 12  1  0  0  0  0
 12 13  2  0  0  0  0
 12 14  2  0  0  0  0
 14 15  1  0  0  0  0
 15 16  1  0  0  0  0
 12 17  2  0  0  0  0
 17 18  1  0  0  0  0
 18 19  1  0  0  0  0
  1 20  1  0  0  0  0
  1 21  1  0  0  0  0
  1 22  1  0  0  0  0
  2 23  1  0  0  0  0
  2 24  1  0  0  0  0
  7 25  1  0  0  0  0
  7 26  1  0  0  0  0
  8 27  1  0  0  0  0
  8 28  1  0  0  0  0
  8 29  1  0  0  0  0
 10 30  1  0  0  0  0
 10 31  1  0  0  0  0
 15 32  1  0  0  0  0
 15 33  1  0  0  0  0
 16 34  1  0  0  0  0
 16 35  1  0  0  0  0
 16 36  1  0  0  0  0
 18 37  1  0  0  0  0
 18 38  1  0  0  0  0
 19 39  1  0  0  0  0
 19 40  1  0  0  0  0
 19 41  1  0  0  0  0
M  END
