 xtb: 6.7.1 (edcfbbe)
          04092505213D

 41 40  0     0  0            999 V2000
    5.3556    0.0266   -2.2439 C   0  0  0  0  0  0  0  0  0  0  0  0
    3.9744   -0.5195   -1.9444 C   0  0  0  0  0  0  0  0  0  0  0  0
    3.5257    0.0642   -0.7042 O   0  0  0  0  0  0  0  0  0  0  0  0
    1.9905    0.0561   -0.2977 P   0  0  0  0  0  0  0  0  0  0  0  0
    0.7974    0.8091   -1.6541 S   0  0  0  0  0  0  0  0  0  0  0  0
    1.9611    0.8683    1.0454 O   0  0  0  0  0  0  0  0  0  0  0  0
    2.8020    0.5819    2.1931 C   0  0  0  0  0  0  0  0  0  0  0  0
    4.0499    1.4395    2.1700 C   0  0  0  0  0  0  0  0  0  0  0  0
    1.7310   -1.9937    0.2295 S   0  0  0  0  0  0  0  0  0  0  0  0
    0.0536   -1.9549    0.9106 C   0  0  0  0  0  0  0  0  0  0  0  0
   -1.2663   -1.9392   -0.3480 S   0  0  0  0  0  0  0  0  0  0  0  0
   -2.1507   -0.0563    0.0255 P   0  0  0  0  0  0  0  0  0  0  0  0
   -1.2762    1.0065    1.4316 S   0  0  0  0  0  0  0  0  0  0  0  0
   -3.6788   -0.3902    0.3412 O   0  0  0  0  0  0  0  0  0  0  0  0
   -4.1323   -0.7862    1.6507 C   0  0  0  0  0  0  0  0  0  0  0  0
   -4.8100    0.3776    2.3479 C   0  0  0  0  0  0  0  0  0  0  0  0
   -2.2762    0.4902   -1.4466 O   0  0  0  0  0  0  0  0  0  0  0  0
   -3.2746    1.4373   -1.8859 C   0  0  0  0  0  0  0  0  0  0  0  0
   -3.1713    2.7563   -1.1493 C   0  0  0  0  0  0  0  0  0  0  0  0
    6.0396   -0.2303   -1.4403 H   0  0  0  0  0  0  0  0  0  0  0  0
    5.7141   -0.4050   -3.1726 H   0  0  0  0  0  0  0  0  0  0  0  0
    5.3155    1.1078   -2.3432 H   0  0  0  0  0  0  0  0  0  0  0  0
    3.9903   -1.6056   -1.8210 H   0  0  0  0  0  0  0  0  0  0  0  0
    3.2587   -0.2576   -2.7308 H   0  0  0  0  0  0  0  0  0  0  0  0
    2.1689    0.8180    3.0509 H   0  0  0  0  0  0  0  0  0  0  0  0
    3.0528   -0.4824    2.1923 H   0  0  0  0  0  0  0  0  0  0  0  0
    3.7779    2.4905    2.1250 H   0  0  0  0  0  0  0  0  0  0  0  0
    4.6220    1.2548    3.0738 H   0  0  0  0  0  0  0  0  0  0  0  0
    4.6570    1.1966    1.3022 H   0  0  0  0  0  0  0  0  0  0  0  0
   -0.0638   -1.0690    1.5431 H   0  0  0  0  0  0  0  0  0  0  0  0
   -0.0481   -2.8733    1.4822 H   0  0  0  0  0  0  0  0  0  0  0  0
   -4.8278   -1.6080    1.4726 H   0  0  0  0  0  0  0  0  0  0  0  0
   -3.2817   -1.1444    2.2369 H   0  0  0  0  0  0  0  0  0  0  0  0
   -5.2080    0.0412    3.2996 H   0  0  0  0  0  0  0  0  0  0  0  0
   -4.0903    1.1738    2.5268 H   0  0  0  0  0  0  0  0  0  0  0  0
   -5.6198    0.7627    1.7344 H   0  0  0  0  0  0  0  0  0  0  0  0
   -3.0557    1.5539   -2.9486 H   0  0  0  0  0  0  0  0  0  0  0  0
   -4.2595    0.9847   -1.7511 H   0  0  0  0  0  0  0  0  0  0  0  0
   -3.3917    2.6133   -0.0918 H   0  0  0  0  0  0  0  0  0  0  0  0
   -2.1628    3.1554   -1.2410 H   0  0  0  0  0  0  0  0  0  0  0  0
   -3.8790    3.4642   -1.5688 H   0  0  0  0  0  0  0  0  0  0  0  0
  1  2  1  0  0  0  0
  2  3  1  0  0  0  0
  3  4  2  0  0  0  0
  4  5  2  0  0  0  0
  4  6  2  0  0  0  0
  6  7  1  0  0  0  0
  7  8  1  0  0  0  0
  4  9  1  0  0  0  0
  9 10  1  0  0  0  0
 10 11  1  0  0  0  0
 11 12  1  0  0  0  0
 12 13  2  0  0  0  0
 12 14  2  0  0  0  0
 14 15  1  0  0  0  0
 15 16  1  0  0  0  0
 12 17  2  0  0  0  0
 17 18  1  0  0  0  0
 18 19  1  0  0  0  0
  1 20  1  0  0  0  0
  1 21  1  0  0  0  0
  1 22  1  0  0  0  0
  2 23  1  0  0  0  0
  2 24  1  0  0  0  0
  7 25  1  0  0  0  0
  7 26  1  0  0  0  0
  8 27  1  0  0  0  0
  8 28  1  0  0  0  0
  8 29  1  0  0  0  0
 10 30  1  0  0  0  0
 10 31  1  0  0  0  0
 15 32  1  0  0  0  0
 15 33  1  0  0  0  0
 16 34  1  0  0  0  0
 16 35  1  0  0  0  0
 16 36  1  0  0  0  0
 18 37  1  0  0  0  0
 18 38  1  0  0  0  0
 19 39  1  0  0  0  0
 19 40  1  0  0  0  0
 19 41  1  0  0  0  0
M  END
