 xtb: 6.7.1 (edcfbbe)
          04092505213D

 41 40  0     0  0            999 V2000
    3.1424   -2.9993   -0.6269 C   0  0  0  0  0  0  0  0  0  0  0  0
    4.2894   -2.0430   -0.3830 C   0  0  0  0  0  0  0  0  0  0  0  0
    3.9836   -0.6896   -0.8063 O   0  0  0  0  0  0  0  0  0  0  0  0
    2.8158    0.2019   -0.2480 P   0  0  0  0  0  0  0  0  0  0  0  0
    3.1375    2.1104   -0.5531 S   0  0  0  0  0  0  0  0  0  0  0  0
    2.7750   -0.2402    1.2809 O   0  0  0  0  0  0  0  0  0  0  0  0
    1.9720    0.4215    2.2768 C   0  0  0  0  0  0  0  0  0  0  0  0
    0.8081   -0.4608    2.6846 C   0  0  0  0  0  0  0  0  0  0  0  0
    1.0341   -0.5433   -1.1802 S   0  0  0  0  0  0  0  0  0  0  0  0
    0.1897    1.0246   -1.4634 C   0  0  0  0  0  0  0  0  0  0  0  0
   -0.7470    1.6056   -0.0241 S   0  0  0  0  0  0  0  0  0  0  0  0
   -2.3824    0.2912   -0.2989 P   0  0  0  0  0  0  0  0  0  0  0  0
   -3.0664    0.0897   -2.1176 S   0  0  0  0  0  0  0  0  0  0  0  0
   -3.4826    0.8402    0.6965 O   0  0  0  0  0  0  0  0  0  0  0  0
   -3.2135    1.0299    2.1105 C   0  0  0  0  0  0  0  0  0  0  0  0
   -4.5462    1.1609    2.8176 C   0  0  0  0  0  0  0  0  0  0  0  0
   -1.7742   -1.0363    0.3565 O   0  0  0  0  0  0  0  0  0  0  0  0
   -2.2162   -2.3493   -0.0376 C   0  0  0  0  0  0  0  0  0  0  0  0
   -3.5978   -2.6468    0.5081 C   0  0  0  0  0  0  0  0  0  0  0  0
    2.2865   -2.7235   -0.0138 H   0  0  0  0  0  0  0  0  0  0  0  0
    2.8430   -2.9770   -1.6717 H   0  0  0  0  0  0  0  0  0  0  0  0
    3.4565   -4.0050   -0.3654 H   0  0  0  0  0  0  0  0  0  0  0  0
    5.1629   -2.2977   -0.9849 H   0  0  0  0  0  0  0  0  0  0  0  0
    4.5596   -2.0147    0.6740 H   0  0  0  0  0  0  0  0  0  0  0  0
    2.6470    0.5963    3.1172 H   0  0  0  0  0  0  0  0  0  0  0  0
    1.6290    1.3855    1.8868 H   0  0  0  0  0  0  0  0  0  0  0  0
    0.1428   -0.6301    1.8415 H   0  0  0  0  0  0  0  0  0  0  0  0
    1.1755   -1.4185    3.0420 H   0  0  0  0  0  0  0  0  0  0  0  0
    0.2556    0.0315    3.4785 H   0  0  0  0  0  0  0  0  0  0  0  0
   -0.4983    0.8764   -2.2965 H   0  0  0  0  0  0  0  0  0  0  0  0
    0.9300    1.7944   -1.6872 H   0  0  0  0  0  0  0  0  0  0  0  0
   -2.6451    0.1716    2.4767 H   0  0  0  0  0  0  0  0  0  0  0  0
   -2.6104    1.9349    2.2167 H   0  0  0  0  0  0  0  0  0  0  0  0
   -5.1321    0.2551    2.6891 H   0  0  0  0  0  0  0  0  0  0  0  0
   -4.3727    1.3307    3.8753 H   0  0  0  0  0  0  0  0  0  0  0  0
   -5.1040    1.9970    2.4060 H   0  0  0  0  0  0  0  0  0  0  0  0
   -2.2095   -2.4062   -1.1302 H   0  0  0  0  0  0  0  0  0  0  0  0
   -1.4598   -3.0201    0.3712 H   0  0  0  0  0  0  0  0  0  0  0  0
   -4.3139   -1.9358    0.0956 H   0  0  0  0  0  0  0  0  0  0  0  0
   -3.8923   -3.6505    0.2183 H   0  0  0  0  0  0  0  0  0  0  0  0
   -3.6043   -2.5687    1.5922 H   0  0  0  0  0  0  0  0  0  0  0  0
  1  2  1  0  0  0  0
  2  3  1  0  0  0  0
  3  4  2  0  0  0  0
  4  5  2  0  0  0  0
  4  6  2  0  0  0  0
  6  7  1  0  0  0  0
  7  8  1  0  0  0  0
  4  9  1  0  0  0  0
  9 10  1  0  0  0  0
 10 11  1  0  0  0  0
 11 12  1  0  0  0  0
 12 13  2  0  0  0  0
 12 14  2  0  0  0  0
 14 15  1  0  0  0  0
 15 16  1  0  0  0  0
 12 17  1  0  0  0  0
 17 18  1  0  0  0  0
 18 19  1  0  0  0  0
  1 20  1  0  0  0  0
  1 21  1  0  0  0  0
  1 22  1  0  0  0  0
  2 23  1  0  0  0  0
  2 24  1  0  0  0  0
  7 25  1  0  0  0  0
  7 26  1  0  0  0  0
  8 27  1  0  0  0  0
  8 28  1  0  0  0  0
  8 29  1  0  0  0  0
 10 30  1  0  0  0  0
 10 31  1  0  0  0  0
 15 32  1  0  0  0  0
 15 33  1  0  0  0  0
 16 34  1  0  0  0  0
 16 35  1  0  0  0  0
 16 36  1  0  0  0  0
 18 37  1  0  0  0  0
 18 38  1  0  0  0  0
 19 39  1  0  0  0  0
 19 40  1  0  0  0  0
 19 41  1  0  0  0  0
M  END
