 xtb: 6.7.1 (edcfbbe)
          04092505213D

 41 40  0     0  0            999 V2000
    3.6459    0.2157   -2.6863 C   0  0  0  0  0  0  0  0  0  0  0  0
    2.1703    0.4469   -2.4409 C   0  0  0  0  0  0  0  0  0  0  0  0
    1.6246   -0.4811   -1.4846 O   0  0  0  0  0  0  0  0  0  0  0  0
    2.0947   -0.5143    0.0305 P   0  0  0  0  0  0  0  0  0  0  0  0
    2.6106    1.1786    0.8815 S   0  0  0  0  0  0  0  0  0  0  0  0
    3.2690   -1.5853   -0.0583 O   0  0  0  0  0  0  0  0  0  0  0  0
    4.2360   -1.7649    0.9892 C   0  0  0  0  0  0  0  0  0  0  0  0
    3.6172   -2.3222    2.2552 C   0  0  0  0  0  0  0  0  0  0  0  0
    0.5060   -1.6091    0.8774 S   0  0  0  0  0  0  0  0  0  0  0  0
   -0.3000   -0.3154    1.8926 C   0  0  0  0  0  0  0  0  0  0  0  0
   -2.0910   -0.2591    1.6614 S   0  0  0  0  0  0  0  0  0  0  0  0
   -2.2076    0.6903   -0.2388 P   0  0  0  0  0  0  0  0  0  0  0  0
   -0.6084    1.7229   -0.7399 S   0  0  0  0  0  0  0  0  0  0  0  0
   -3.5520    1.5096   -0.1587 O   0  0  0  0  0  0  0  0  0  0  0  0
   -3.6467    2.6858    0.6727 C   0  0  0  0  0  0  0  0  0  0  0  0
   -4.8962    3.4390    0.2646 C   0  0  0  0  0  0  0  0  0  0  0  0
   -2.7312   -0.3513   -1.3037 O   0  0  0  0  0  0  0  0  0  0  0  0
   -1.9171   -1.3795   -1.8985 C   0  0  0  0  0  0  0  0  0  0  0  0
   -2.1963   -2.7213   -1.2491 C   0  0  0  0  0  0  0  0  0  0  0  0
    4.2123    0.4453   -1.7844 H   0  0  0  0  0  0  0  0  0  0  0  0
    3.8216   -0.8215   -2.9598 H   0  0  0  0  0  0  0  0  0  0  0  0
    3.9814    0.8663   -3.4878 H   0  0  0  0  0  0  0  0  0  0  0  0
    1.5764    0.2732   -3.3396 H   0  0  0  0  0  0  0  0  0  0  0  0
    1.9846    1.4629   -2.0756 H   0  0  0  0  0  0  0  0  0  0  0  0
    4.9627   -2.4547    0.5580 H   0  0  0  0  0  0  0  0  0  0  0  0
    4.7105   -0.7988    1.1896 H   0  0  0  0  0  0  0  0  0  0  0  0
    3.0453   -3.2198    2.0340 H   0  0  0  0  0  0  0  0  0  0  0  0
    4.4040   -2.5596    2.9641 H   0  0  0  0  0  0  0  0  0  0  0  0
    2.9544   -1.5810    2.7003 H   0  0  0  0  0  0  0  0  0  0  0  0
    0.1441    0.6505    1.6387 H   0  0  0  0  0  0  0  0  0  0  0  0
   -0.1479   -0.5575    2.9410 H   0  0  0  0  0  0  0  0  0  0  0  0
   -3.6980    2.3650    1.7171 H   0  0  0  0  0  0  0  0  0  0  0  0
   -2.7465    3.2935    0.5276 H   0  0  0  0  0  0  0  0  0  0  0  0
   -4.8261    3.7415   -0.7764 H   0  0  0  0  0  0  0  0  0  0  0  0
   -5.7665    2.8013    0.3872 H   0  0  0  0  0  0  0  0  0  0  0  0
   -5.0019    4.3200    0.8890 H   0  0  0  0  0  0  0  0  0  0  0  0
   -2.2031   -1.3850   -2.9524 H   0  0  0  0  0  0  0  0  0  0  0  0
   -0.8590   -1.1062   -1.8180 H   0  0  0  0  0  0  0  0  0  0  0  0
   -3.2589   -2.9397   -1.3014 H   0  0  0  0  0  0  0  0  0  0  0  0
   -1.6416   -3.4915   -1.7752 H   0  0  0  0  0  0  0  0  0  0  0  0
   -1.8867   -2.7179   -0.2063 H   0  0  0  0  0  0  0  0  0  0  0  0
  1  2  1  0  0  0  0
  2  3  1  0  0  0  0
  3  4  2  0  0  0  0
  4  5  2  0  0  0  0
  4  6  2  0  0  0  0
  6  7  1  0  0  0  0
  7  8  1  0  0  0  0
  4  9  1  0  0  0  0
  9 10  1  0  0  0  0
 10 11  1  0  0  0  0
 11 12  1  0  0  0  0
 12 13  2  0  0  0  0
 12 14  2  0  0  0  0
 14 15  1  0  0  0  0
 15 16  1  0  0  0  0
 12 17  2  0  0  0  0
 17 18  1  0  0  0  0
 18 19  1  0  0  0  0
  1 20  1  0  0  0  0
  1 21  1  0  0  0  0
  1 22  1  0  0  0  0
  2 23  1  0  0  0  0
  2 24  1  0  0  0  0
  7 25  1  0  0  0  0
  7 26  1  0  0  0  0
  8 27  1  0  0  0  0
  8 28  1  0  0  0  0
  8 29  1  0  0  0  0
 10 30  1  0  0  0  0
 10 31  1  0  0  0  0
 15 32  1  0  0  0  0
 15 33  1  0  0  0  0
 16 34  1  0  0  0  0
 16 35  1  0  0  0  0
 16 36  1  0  0  0  0
 18 37  1  0  0  0  0
 18 38  1  0  0  0  0
 19 39  1  0  0  0  0
 19 40  1  0  0  0  0
 19 41  1  0  0  0  0
M  END
