 xtb: 6.7.1 (edcfbbe)
          04092505203D

 41 40  0     0  0            999 V2000
    3.7064   -2.1903    1.5164 C   0  0  0  0  0  0  0  0  0  0  0  0
    2.3388   -2.1120    0.8698 C   0  0  0  0  0  0  0  0  0  0  0  0
    1.9195   -0.7422    0.7281 O   0  0  0  0  0  0  0  0  0  0  0  0
    2.4511    0.1946   -0.4532 P   0  0  0  0  0  0  0  0  0  0  0  0
    3.1808   -0.7794   -1.9827 S   0  0  0  0  0  0  0  0  0  0  0  0
    3.5172    1.1915    0.1580 O   0  0  0  0  0  0  0  0  0  0  0  0
    3.2367    2.3194    1.0199 C   0  0  0  0  0  0  0  0  0  0  0  0
    2.5486    1.9138    2.3061 C   0  0  0  0  0  0  0  0  0  0  0  0
    0.7518    1.4025   -0.8246 S   0  0  0  0  0  0  0  0  0  0  0  0
   -0.1454    0.1449   -1.7712 C   0  0  0  0  0  0  0  0  0  0  0  0
   -0.9496   -1.0854   -0.7255 S   0  0  0  0  0  0  0  0  0  0  0  0
   -2.4517    0.2318    0.0406 P   0  0  0  0  0  0  0  0  0  0  0  0
   -3.1477    1.5003   -1.2807 S   0  0  0  0  0  0  0  0  0  0  0  0
   -1.8194    0.9757    1.2798 O   0  0  0  0  0  0  0  0  0  0  0  0
   -1.7389    0.4665    2.6340 C   0  0  0  0  0  0  0  0  0  0  0  0
   -0.9032   -0.7917    2.7336 C   0  0  0  0  0  0  0  0  0  0  0  0
   -3.5220   -0.7248    0.7189 O   0  0  0  0  0  0  0  0  0  0  0  0
   -4.6272   -1.2885   -0.0110 C   0  0  0  0  0  0  0  0  0  0  0  0
   -4.1773   -2.2784   -1.0655 C   0  0  0  0  0  0  0  0  0  0  0  0
    4.4363   -1.6824    0.8861 H   0  0  0  0  0  0  0  0  0  0  0  0
    3.6933   -1.7162    2.4939 H   0  0  0  0  0  0  0  0  0  0  0  0
    3.9961   -3.2305    1.6247 H   0  0  0  0  0  0  0  0  0  0  0  0
    1.5657   -2.5732    1.4854 H   0  0  0  0  0  0  0  0  0  0  0  0
    2.3512   -2.5808   -0.1189 H   0  0  0  0  0  0  0  0  0  0  0  0
    4.2251    2.7427    1.2057 H   0  0  0  0  0  0  0  0  0  0  0  0
    2.6275    3.0342    0.4602 H   0  0  0  0  0  0  0  0  0  0  0  0
    2.4503    2.7863    2.9447 H   0  0  0  0  0  0  0  0  0  0  0  0
    1.5574    1.5201    2.0910 H   0  0  0  0  0  0  0  0  0  0  0  0
    3.1302    1.1548    2.8224 H   0  0  0  0  0  0  0  0  0  0  0  0
    0.5531   -0.3833   -2.4217 H   0  0  0  0  0  0  0  0  0  0  0  0
   -0.9046    0.6742   -2.3485 H   0  0  0  0  0  0  0  0  0  0  0  0
   -1.2893    1.2959    3.1828 H   0  0  0  0  0  0  0  0  0  0  0  0
   -2.7548    0.2905    2.9926 H   0  0  0  0  0  0  0  0  0  0  0  0
    0.0834   -0.6252    2.3089 H   0  0  0  0  0  0  0  0  0  0  0  0
   -0.8010   -1.0669    3.7787 H   0  0  0  0  0  0  0  0  0  0  0  0
   -1.3844   -1.6057    2.1946 H   0  0  0  0  0  0  0  0  0  0  0  0
   -5.2284   -1.7690    0.7622 H   0  0  0  0  0  0  0  0  0  0  0  0
   -5.1915   -0.4702   -0.4686 H   0  0  0  0  0  0  0  0  0  0  0  0
   -3.5203   -3.0270   -0.6304 H   0  0  0  0  0  0  0  0  0  0  0  0
   -5.0479   -2.7664   -1.4919 H   0  0  0  0  0  0  0  0  0  0  0  0
   -3.6417   -1.7600   -1.8593 H   0  0  0  0  0  0  0  0  0  0  0  0
  1  2  1  0  0  0  0
  2  3  1  0  0  0  0
  3  4  1  0  0  0  0
  4  5  2  0  0  0  0
  4  6  2  0  0  0  0
  6  7  1  0  0  0  0
  7  8  1  0  0  0  0
  4  9  1  0  0  0  0
  9 10  1  0  0  0  0
 10 11  1  0  0  0  0
 11 12  1  0  0  0  0
 12 13  2  0  0  0  0
 12 14  2  0  0  0  0
 14 15  1  0  0  0  0
 15 16  1  0  0  0  0
 12 17  2  0  0  0  0
 17 18  1  0  0  0  0
 18 19  1  0  0  0  0
  1 20  1  0  0  0  0
  1 21  1  0  0  0  0
  1 22  1  0  0  0  0
  2 23  1  0  0  0  0
  2 24  1  0  0  0  0
  7 25  1  0  0  0  0
  7 26  1  0  0  0  0
  8 27  1  0  0  0  0
  8 28  1  0  0  0  0
  8 29  1  0  0  0  0
 10 30  1  0  0  0  0
 10 31  1  0  0  0  0
 15 32  1  0  0  0  0
 15 33  1  0  0  0  0
 16 34  1  0  0  0  0
 16 35  1  0  0  0  0
 16 36  1  0  0  0  0
 18 37  1  0  0  0  0
 18 38  1  0  0  0  0
 19 39  1  0  0  0  0
 19 40  1  0  0  0  0
 19 41  1  0  0  0  0
M  END
