 xtb: 6.7.1 (edcfbbe)
          04092505213D

 41 40  0     0  0            999 V2000
    4.8065    0.4689   -2.2069 C   0  0  0  0  0  0  0  0  0  0  0  0
    3.9486    1.3466   -1.3192 C   0  0  0  0  0  0  0  0  0  0  0  0
    3.7769    0.7413   -0.0127 O   0  0  0  0  0  0  0  0  0  0  0  0
    2.5027   -0.0750    0.4145 P   0  0  0  0  0  0  0  0  0  0  0  0
    2.6729   -0.6618    2.2705 S   0  0  0  0  0  0  0  0  0  0  0  0
    2.4363   -1.1817   -0.7292 O   0  0  0  0  0  0  0  0  0  0  0  0
    1.3440   -2.0781   -0.9827 C   0  0  0  0  0  0  0  0  0  0  0  0
    1.1341   -3.0758    0.1383 C   0  0  0  0  0  0  0  0  0  0  0  0
    0.8665    1.2452   -0.0043 S   0  0  0  0  0  0  0  0  0  0  0  0
   -0.0763    1.0197    1.5204 C   0  0  0  0  0  0  0  0  0  0  0  0
   -1.1892   -0.4154    1.4911 S   0  0  0  0  0  0  0  0  0  0  0  0
   -2.4163    0.1364   -0.1476 P   0  0  0  0  0  0  0  0  0  0  0  0
   -1.8110   -0.1928   -1.9880 S   0  0  0  0  0  0  0  0  0  0  0  0
   -2.7298    1.6394    0.2308 O   0  0  0  0  0  0  0  0  0  0  0  0
   -2.9478    2.6855   -0.7426 C   0  0  0  0  0  0  0  0  0  0  0  0
   -1.8903    3.7594   -0.5818 C   0  0  0  0  0  0  0  0  0  0  0  0
   -3.8053   -0.5648    0.1837 O   0  0  0  0  0  0  0  0  0  0  0  0
   -4.1152   -1.8963   -0.2598 C   0  0  0  0  0  0  0  0  0  0  0  0
   -3.2457   -2.9318    0.4239 C   0  0  0  0  0  0  0  0  0  0  0  0
    4.3107   -0.4799   -2.3932 H   0  0  0  0  0  0  0  0  0  0  0  0
    4.9760    0.9768   -3.1513 H   0  0  0  0  0  0  0  0  0  0  0  0
    5.7611    0.2760   -1.7254 H   0  0  0  0  0  0  0  0  0  0  0  0
    2.9649    1.5228   -1.7636 H   0  0  0  0  0  0  0  0  0  0  0  0
    4.4351    2.3020   -1.1146 H   0  0  0  0  0  0  0  0  0  0  0  0
    0.4384   -1.4908   -1.1674 H   0  0  0  0  0  0  0  0  0  0  0  0
    1.6327   -2.5801   -1.9082 H   0  0  0  0  0  0  0  0  0  0  0  0
    2.0689   -3.5814    0.3673 H   0  0  0  0  0  0  0  0  0  0  0  0
    0.7808   -2.5771    1.0394 H   0  0  0  0  0  0  0  0  0  0  0  0
    0.3967   -3.8098   -0.1714 H   0  0  0  0  0  0  0  0  0  0  0  0
   -0.6580    1.9240    1.6757 H   0  0  0  0  0  0  0  0  0  0  0  0
    0.6154    0.8375    2.3455 H   0  0  0  0  0  0  0  0  0  0  0  0
   -2.9133    2.2516   -1.7472 H   0  0  0  0  0  0  0  0  0  0  0  0
   -3.9483    3.0735   -0.5450 H   0  0  0  0  0  0  0  0  0  0  0  0
   -0.9018    3.3432   -0.7697 H   0  0  0  0  0  0  0  0  0  0  0  0
   -2.0815    4.5542   -1.2954 H   0  0  0  0  0  0  0  0  0  0  0  0
   -1.9180    4.1688    0.4244 H   0  0  0  0  0  0  0  0  0  0  0  0
   -5.1691   -2.0205   -0.0082 H   0  0  0  0  0  0  0  0  0  0  0  0
   -3.9828   -1.9382   -1.3460 H   0  0  0  0  0  0  0  0  0  0  0  0
   -3.5614   -3.9259    0.1245 H   0  0  0  0  0  0  0  0  0  0  0  0
   -2.2049   -2.7867    0.1340 H   0  0  0  0  0  0  0  0  0  0  0  0
   -3.3210   -2.8368    1.5041 H   0  0  0  0  0  0  0  0  0  0  0  0
  1  2  1  0  0  0  0
  2  3  1  0  0  0  0
  3  4  2  0  0  0  0
  4  5  2  0  0  0  0
  4  6  2  0  0  0  0
  6  7  1  0  0  0  0
  7  8  1  0  0  0  0
  4  9  1  0  0  0  0
  9 10  1  0  0  0  0
 10 11  1  0  0  0  0
 11 12  1  0  0  0  0
 12 13  2  0  0  0  0
 12 14  2  0  0  0  0
 14 15  1  0  0  0  0
 15 16  1  0  0  0  0
 12 17  2  0  0  0  0
 17 18  1  0  0  0  0
 18 19  1  0  0  0  0
  1 20  1  0  0  0  0
  1 21  1  0  0  0  0
  1 22  1  0  0  0  0
  2 23  1  0  0  0  0
  2 24  1  0  0  0  0
  7 25  1  0  0  0  0
  7 26  1  0  0  0  0
  8 27  1  0  0  0  0
  8 28  1  0  0  0  0
  8 29  1  0  0  0  0
 10 30  1  0  0  0  0
 10 31  1  0  0  0  0
 15 32  1  0  0  0  0
 15 33  1  0  0  0  0
 16 34  1  0  0  0  0
 16 35  1  0  0  0  0
 16 36  1  0  0  0  0
 18 37  1  0  0  0  0
 18 38  1  0  0  0  0
 19 39  1  0  0  0  0
 19 40  1  0  0  0  0
 19 41  1  0  0  0  0
M  END
