 xtb: 6.7.1 (edcfbbe)
          04092505213D

 41 40  0     0  0            999 V2000
    2.7548    2.1629   -2.0537 C   0  0  0  0  0  0  0  0  0  0  0  0
    3.3150    1.2451   -0.9870 C   0  0  0  0  0  0  0  0  0  0  0  0
    2.2924    1.0436    0.0245 O   0  0  0  0  0  0  0  0  0  0  0  0
    2.0981   -0.3203    0.7892 P   0  0  0  0  0  0  0  0  0  0  0  0
    0.6394   -0.1358    2.0800 S   0  0  0  0  0  0  0  0  0  0  0  0
    3.5664   -0.5760    1.3398 O   0  0  0  0  0  0  0  0  0  0  0  0
    4.0839   -1.8407    1.7949 C   0  0  0  0  0  0  0  0  0  0  0  0
    3.2210   -2.4756    2.8649 C   0  0  0  0  0  0  0  0  0  0  0  0
    1.8820   -1.8568   -0.6784 S   0  0  0  0  0  0  0  0  0  0  0  0
    0.1107   -1.6913   -0.9421 C   0  0  0  0  0  0  0  0  0  0  0  0
   -0.3031   -0.0632   -1.6675 S   0  0  0  0  0  0  0  0  0  0  0  0
   -2.1509    0.3029   -0.7259 P   0  0  0  0  0  0  0  0  0  0  0  0
   -2.6947   -0.9037    0.7274 S   0  0  0  0  0  0  0  0  0  0  0  0
   -3.0965    0.2435   -1.9946 O   0  0  0  0  0  0  0  0  0  0  0  0
   -4.5164    0.0231   -1.8853 C   0  0  0  0  0  0  0  0  0  0  0  0
   -5.2180    1.2098   -1.2598 C   0  0  0  0  0  0  0  0  0  0  0  0
   -2.1319    1.8710   -0.4589 O   0  0  0  0  0  0  0  0  0  0  0  0
   -1.2951    2.5514    0.4898 C   0  0  0  0  0  0  0  0  0  0  0  0
   -1.8886    2.5197    1.8840 C   0  0  0  0  0  0  0  0  0  0  0  0
    2.4549    3.1089   -1.6122 H   0  0  0  0  0  0  0  0  0  0  0  0
    3.5180    2.3419   -2.8039 H   0  0  0  0  0  0  0  0  0  0  0  0
    1.8879    1.7051   -2.5243 H   0  0  0  0  0  0  0  0  0  0  0  0
    4.1768    1.6868   -0.4842 H   0  0  0  0  0  0  0  0  0  0  0  0
    3.5946    0.2741   -1.4055 H   0  0  0  0  0  0  0  0  0  0  0  0
    4.1757   -2.5018    0.9290 H   0  0  0  0  0  0  0  0  0  0  0  0
    5.0740   -1.5880    2.1783 H   0  0  0  0  0  0  0  0  0  0  0  0
    2.2417   -2.7264    2.4588 H   0  0  0  0  0  0  0  0  0  0  0  0
    3.6972   -3.3825    3.2231 H   0  0  0  0  0  0  0  0  0  0  0  0
    3.0801   -1.7893    3.6968 H   0  0  0  0  0  0  0  0  0  0  0  0
   -0.4212   -1.7891    0.0094 H   0  0  0  0  0  0  0  0  0  0  0  0
   -0.1715   -2.4787   -1.6365 H   0  0  0  0  0  0  0  0  0  0  0  0
   -4.8347   -0.1436   -2.9150 H   0  0  0  0  0  0  0  0  0  0  0  0
   -4.6817   -0.8809   -1.2902 H   0  0  0  0  0  0  0  0  0  0  0  0
   -4.9813    2.1180   -1.8076 H   0  0  0  0  0  0  0  0  0  0  0  0
   -6.2908    1.0451   -1.2726 H   0  0  0  0  0  0  0  0  0  0  0  0
   -4.8884    1.3262   -0.2278 H   0  0  0  0  0  0  0  0  0  0  0  0
   -0.2959    2.1039    0.4851 H   0  0  0  0  0  0  0  0  0  0  0  0
   -1.2381    3.5716    0.1053 H   0  0  0  0  0  0  0  0  0  0  0  0
   -1.9070    1.4997    2.2639 H   0  0  0  0  0  0  0  0  0  0  0  0
   -1.2742    3.1207    2.5466 H   0  0  0  0  0  0  0  0  0  0  0  0
   -2.9016    2.9126    1.8719 H   0  0  0  0  0  0  0  0  0  0  0  0
  1  2  1  0  0  0  0
  2  3  1  0  0  0  0
  3  4  2  0  0  0  0
  4  5  2  0  0  0  0
  4  6  2  0  0  0  0
  6  7  1  0  0  0  0
  7  8  1  0  0  0  0
  4  9  1  0  0  0  0
  9 10  1  0  0  0  0
 10 11  1  0  0  0  0
 11 12  1  0  0  0  0
 12 13  2  0  0  0  0
 12 14  2  0  0  0  0
 14 15  1  0  0  0  0
 15 16  1  0  0  0  0
 12 17  2  0  0  0  0
 17 18  1  0  0  0  0
 18 19  1  0  0  0  0
  1 20  1  0  0  0  0
  1 21  1  0  0  0  0
  1 22  1  0  0  0  0
  2 23  1  0  0  0  0
  2 24  1  0  0  0  0
  7 25  1  0  0  0  0
  7 26  1  0  0  0  0
  8 27  1  0  0  0  0
  8 28  1  0  0  0  0
  8 29  1  0  0  0  0
 10 30  1  0  0  0  0
 10 31  1  0  0  0  0
 15 32  1  0  0  0  0
 15 33  1  0  0  0  0
 16 34  1  0  0  0  0
 16 35  1  0  0  0  0
 16 36  1  0  0  0  0
 18 37  1  0  0  0  0
 18 38  1  0  0  0  0
 19 39  1  0  0  0  0
 19 40  1  0  0  0  0
 19 41  1  0  0  0  0
M  END
