 xtb: 6.7.1 (edcfbbe)
          04092505213D

 41 40  0     0  0            999 V2000
    3.2763   -1.3178   -3.0541 C   0  0  0  0  0  0  0  0  0  0  0  0
    3.9518   -0.3718   -2.0831 C   0  0  0  0  0  0  0  0  0  0  0  0
    3.4942   -0.5858   -0.7397 O   0  0  0  0  0  0  0  0  0  0  0  0
    2.0309   -0.1606   -0.2737 P   0  0  0  0  0  0  0  0  0  0  0  0
    1.4756    1.5439   -1.0844 S   0  0  0  0  0  0  0  0  0  0  0  0
    2.1545   -0.3051    1.2982 O   0  0  0  0  0  0  0  0  0  0  0  0
    3.1995    0.2967    2.0926 C   0  0  0  0  0  0  0  0  0  0  0  0
    3.0951    1.8067    2.1306 C   0  0  0  0  0  0  0  0  0  0  0  0
    0.8768   -1.8966   -0.6716 S   0  0  0  0  0  0  0  0  0  0  0  0
   -0.2389   -2.0475    0.7620 C   0  0  0  0  0  0  0  0  0  0  0  0
   -1.9722   -1.7116    0.3686 S   0  0  0  0  0  0  0  0  0  0  0  0
   -1.9101    0.4106    0.4688 P   0  0  0  0  0  0  0  0  0  0  0  0
   -0.7202    1.1341    1.8403 S   0  0  0  0  0  0  0  0  0  0  0  0
   -3.4458    0.7803    0.6456 O   0  0  0  0  0  0  0  0  0  0  0  0
   -4.1453    0.5101    1.8782 C   0  0  0  0  0  0  0  0  0  0  0  0
   -5.4317    1.3102    1.8671 C   0  0  0  0  0  0  0  0  0  0  0  0
   -1.6138    0.9581   -0.9723 O   0  0  0  0  0  0  0  0  0  0  0  0
   -2.3695    0.5694   -2.1517 C   0  0  0  0  0  0  0  0  0  0  0  0
   -1.4904   -0.2445   -3.0790 C   0  0  0  0  0  0  0  0  0  0  0  0
    3.6873   -1.1730   -4.0478 H   0  0  0  0  0  0  0  0  0  0  0  0
    3.4242   -2.3489   -2.7445 H   0  0  0  0  0  0  0  0  0  0  0  0
    2.2057   -1.1126   -3.0784 H   0  0  0  0  0  0  0  0  0  0  0  0
    3.7501    0.6701   -2.3548 H   0  0  0  0  0  0  0  0  0  0  0  0
    5.0276   -0.5428   -2.0293 H   0  0  0  0  0  0  0  0  0  0  0  0
    3.0405   -0.1354    3.0822 H   0  0  0  0  0  0  0  0  0  0  0  0
    4.1633   -0.0245    1.6915 H   0  0  0  0  0  0  0  0  0  0  0  0
    2.0954    2.1020    2.4452 H   0  0  0  0  0  0  0  0  0  0  0  0
    3.8245    2.2020    2.8301 H   0  0  0  0  0  0  0  0  0  0  0  0
    3.2816    2.2261    1.1432 H   0  0  0  0  0  0  0  0  0  0  0  0
    0.0878   -1.3665    1.5476 H   0  0  0  0  0  0  0  0  0  0  0  0
   -0.1947   -3.0843    1.0837 H   0  0  0  0  0  0  0  0  0  0  0  0
   -4.3410   -0.5643    1.9285 H   0  0  0  0  0  0  0  0  0  0  0  0
   -3.4992    0.7975    2.7142 H   0  0  0  0  0  0  0  0  0  0  0  0
   -5.2099    2.3717    1.8007 H   0  0  0  0  0  0  0  0  0  0  0  0
   -6.0400    1.0238    1.0142 H   0  0  0  0  0  0  0  0  0  0  0  0
   -5.9795    1.1146    2.7829 H   0  0  0  0  0  0  0  0  0  0  0  0
   -3.2552    0.0107   -1.8410 H   0  0  0  0  0  0  0  0  0  0  0  0
   -2.6680    1.5121   -2.6120 H   0  0  0  0  0  0  0  0  0  0  0  0
   -2.0165   -0.4103   -4.0134 H   0  0  0  0  0  0  0  0  0  0  0  0
   -0.5688    0.2985   -3.2765 H   0  0  0  0  0  0  0  0  0  0  0  0
   -1.2418   -1.2057   -2.6338 H   0  0  0  0  0  0  0  0  0  0  0  0
  1  2  1  0  0  0  0
  2  3  1  0  0  0  0
  3  4  2  0  0  0  0
  4  5  2  0  0  0  0
  4  6  2  0  0  0  0
  6  7  1  0  0  0  0
  7  8  1  0  0  0  0
  4  9  1  0  0  0  0
  9 10  1  0  0  0  0
 10 11  1  0  0  0  0
 11 12  1  0  0  0  0
 12 13  2  0  0  0  0
 12 14  2  0  0  0  0
 14 15  1  0  0  0  0
 15 16  1  0  0  0  0
 12 17  2  0  0  0  0
 17 18  1  0  0  0  0
 18 19  1  0  0  0  0
  1 20  1  0  0  0  0
  1 21  1  0  0  0  0
  1 22  1  0  0  0  0
  2 23  1  0  0  0  0
  2 24  1  0  0  0  0
  7 25  1  0  0  0  0
  7 26  1  0  0  0  0
  8 27  1  0  0  0  0
  8 28  1  0  0  0  0
  8 29  1  0  0  0  0
 10 30  1  0  0  0  0
 10 31  1  0  0  0  0
 15 32  1  0  0  0  0
 15 33  1  0  0  0  0
 16 34  1  0  0  0  0
 16 35  1  0  0  0  0
 16 36  1  0  0  0  0
 18 37  1  0  0  0  0
 18 38  1  0  0  0  0
 19 39  1  0  0  0  0
 19 40  1  0  0  0  0
 19 41  1  0  0  0  0
M  END
