 xtb: 6.7.1 (edcfbbe)
          04092505203D

 41 40  0     0  0            999 V2000
    3.3706   -1.3943   -2.9099 C   0  0  0  0  0  0  0  0  0  0  0  0
    4.1449   -1.0388   -1.6586 C   0  0  0  0  0  0  0  0  0  0  0  0
    3.5743    0.0752   -0.9448 O   0  0  0  0  0  0  0  0  0  0  0  0
    2.0580    0.1872   -0.4807 P   0  0  0  0  0  0  0  0  0  0  0  0
    0.7709    0.7718   -1.8362 S   0  0  0  0  0  0  0  0  0  0  0  0
    2.1468    1.2868    0.6436 O   0  0  0  0  0  0  0  0  0  0  0  0
    3.1089    1.3222    1.7270 C   0  0  0  0  0  0  0  0  0  0  0  0
    2.5374    0.7084    2.9904 C   0  0  0  0  0  0  0  0  0  0  0  0
    1.7464   -1.7088    0.4303 S   0  0  0  0  0  0  0  0  0  0  0  0
    0.1015   -1.4668    1.1491 C   0  0  0  0  0  0  0  0  0  0  0  0
   -1.2508   -1.4503   -0.0657 S   0  0  0  0  0  0  0  0  0  0  0  0
   -2.0361    0.5053    0.2566 P   0  0  0  0  0  0  0  0  0  0  0  0
   -1.0355    1.6145    1.5214 S   0  0  0  0  0  0  0  0  0  0  0  0
   -3.5583    0.2546    0.6736 O   0  0  0  0  0  0  0  0  0  0  0  0
   -3.9827    0.0396    2.0298 C   0  0  0  0  0  0  0  0  0  0  0  0
   -3.4563   -1.2578    2.6091 C   0  0  0  0  0  0  0  0  0  0  0  0
   -2.2290    1.2061   -1.1384 O   0  0  0  0  0  0  0  0  0  0  0  0
   -3.2271    0.8701   -2.1311 C   0  0  0  0  0  0  0  0  0  0  0  0
   -3.0503   -0.5307   -2.6763 C   0  0  0  0  0  0  0  0  0  0  0  0
    2.3692   -1.7339   -2.6480 H   0  0  0  0  0  0  0  0  0  0  0  0
    3.2774   -0.5260   -3.5582 H   0  0  0  0  0  0  0  0  0  0  0  0
    3.8870   -2.1880   -3.4401 H   0  0  0  0  0  0  0  0  0  0  0  0
    5.1543   -0.6984   -1.8967 H   0  0  0  0  0  0  0  0  0  0  0  0
    4.1896   -1.8920   -0.9761 H   0  0  0  0  0  0  0  0  0  0  0  0
    4.0220    0.8168    1.4073 H   0  0  0  0  0  0  0  0  0  0  0  0
    3.3038    2.3873    1.8627 H   0  0  0  0  0  0  0  0  0  0  0  0
    3.2000    0.9322    3.8203 H   0  0  0  0  0  0  0  0  0  0  0  0
    1.5574    1.1359    3.1934 H   0  0  0  0  0  0  0  0  0  0  0  0
    2.4463   -0.3706    2.8930 H   0  0  0  0  0  0  0  0  0  0  0  0
    0.0780   -0.5220    1.7005 H   0  0  0  0  0  0  0  0  0  0  0  0
   -0.0474   -2.3212    1.8044 H   0  0  0  0  0  0  0  0  0  0  0  0
   -3.6519    0.8915    2.6322 H   0  0  0  0  0  0  0  0  0  0  0  0
   -5.0715    0.0358    1.9594 H   0  0  0  0  0  0  0  0  0  0  0  0
   -3.9325   -1.4369    3.5677 H   0  0  0  0  0  0  0  0  0  0  0  0
   -3.6692   -2.0869    1.9392 H   0  0  0  0  0  0  0  0  0  0  0  0
   -2.3804   -1.1873    2.7588 H   0  0  0  0  0  0  0  0  0  0  0  0
   -4.2136    0.9994   -1.6805 H   0  0  0  0  0  0  0  0  0  0  0  0
   -3.0640    1.6229   -2.9039 H   0  0  0  0  0  0  0  0  0  0  0  0
   -3.2586   -1.2693   -1.9035 H   0  0  0  0  0  0  0  0  0  0  0  0
   -3.7366   -0.6799   -3.5038 H   0  0  0  0  0  0  0  0  0  0  0  0
   -2.0291   -0.6650   -3.0270 H   0  0  0  0  0  0  0  0  0  0  0  0
  1  2  1  0  0  0  0
  2  3  1  0  0  0  0
  3  4  2  0  0  0  0
  4  5  2  0  0  0  0
  4  6  2  0  0  0  0
  6  7  1  0  0  0  0
  7  8  1  0  0  0  0
  4  9  1  0  0  0  0
  9 10  1  0  0  0  0
 10 11  1  0  0  0  0
 11 12  1  0  0  0  0
 12 13  2  0  0  0  0
 12 14  2  0  0  0  0
 14 15  1  0  0  0  0
 15 16  1  0  0  0  0
 12 17  2  0  0  0  0
 17 18  1  0  0  0  0
 18 19  1  0  0  0  0
  1 20  1  0  0  0  0
  1 21  1  0  0  0  0
  1 22  1  0  0  0  0
  2 23  1  0  0  0  0
  2 24  1  0  0  0  0
  7 25  1  0  0  0  0
  7 26  1  0  0  0  0
  8 27  1  0  0  0  0
  8 28  1  0  0  0  0
  8 29  1  0  0  0  0
 10 30  1  0  0  0  0
 10 31  1  0  0  0  0
 15 32  1  0  0  0  0
 15 33  1  0  0  0  0
 16 34  1  0  0  0  0
 16 35  1  0  0  0  0
 16 36  1  0  0  0  0
 18 37  1  0  0  0  0
 18 38  1  0  0  0  0
 19 39  1  0  0  0  0
 19 40  1  0  0  0  0
 19 41  1  0  0  0  0
M  END
