 xtb: 6.7.1 (edcfbbe)
          04092505213D

 41 40  0     0  0            999 V2000
    3.1834   -1.8317   -2.5850 C   0  0  0  0  0  0  0  0  0  0  0  0
    3.8405   -0.8790   -1.6057 C   0  0  0  0  0  0  0  0  0  0  0  0
    3.1770   -0.9350   -0.3246 O   0  0  0  0  0  0  0  0  0  0  0  0
    2.0417    0.0717    0.1259 P   0  0  0  0  0  0  0  0  0  0  0  0
    1.3657    1.2316   -1.3062 S   0  0  0  0  0  0  0  0  0  0  0  0
    2.7469    0.8371    1.3239 O   0  0  0  0  0  0  0  0  0  0  0  0
    2.3591    2.1424    1.7998 C   0  0  0  0  0  0  0  0  0  0  0  0
    3.2787    3.2023    1.2257 C   0  0  0  0  0  0  0  0  0  0  0  0
    0.8453   -1.2912    1.2264 S   0  0  0  0  0  0  0  0  0  0  0  0
    0.1712   -2.2831   -0.1333 C   0  0  0  0  0  0  0  0  0  0  0  0
   -0.8862   -1.3465   -1.2861 S   0  0  0  0  0  0  0  0  0  0  0  0
   -1.9965   -0.1780    0.0802 P   0  0  0  0  0  0  0  0  0  0  0  0
   -1.2706    1.3871    1.0325 S   0  0  0  0  0  0  0  0  0  0  0  0
   -2.5056   -1.3538    1.0075 O   0  0  0  0  0  0  0  0  0  0  0  0
   -3.0089   -1.1280    2.3401 C   0  0  0  0  0  0  0  0  0  0  0  0
   -4.3608   -0.4469    2.3170 C   0  0  0  0  0  0  0  0  0  0  0  0
   -3.2864    0.1853   -0.7744 O   0  0  0  0  0  0  0  0  0  0  0  0
   -3.3802    1.3808   -1.5654 C   0  0  0  0  0  0  0  0  0  0  0  0
   -2.4347    1.3489   -2.7490 C   0  0  0  0  0  0  0  0  0  0  0  0
    3.7302   -1.8117   -3.5221 H   0  0  0  0  0  0  0  0  0  0  0  0
    3.1899   -2.8439   -2.1896 H   0  0  0  0  0  0  0  0  0  0  0  0
    2.1554   -1.5231   -2.7717 H   0  0  0  0  0  0  0  0  0  0  0  0
    3.8068    0.1462   -1.9845 H   0  0  0  0  0  0  0  0  0  0  0  0
    4.8718   -1.1638   -1.3941 H   0  0  0  0  0  0  0  0  0  0  0  0
    1.3174    2.3399    1.5300 H   0  0  0  0  0  0  0  0  0  0  0  0
    2.4444    2.0813    2.8861 H   0  0  0  0  0  0  0  0  0  0  0  0
    3.1578    3.2549    0.1455 H   0  0  0  0  0  0  0  0  0  0  0  0
    3.0243    4.1650    1.6568 H   0  0  0  0  0  0  0  0  0  0  0  0
    4.3130    2.9622    1.4560 H   0  0  0  0  0  0  0  0  0  0  0  0
   -0.4173   -3.0697    0.3333 H   0  0  0  0  0  0  0  0  0  0  0  0
    0.9819   -2.6981   -0.7290 H   0  0  0  0  0  0  0  0  0  0  0  0
   -3.0639   -2.1279    2.7719 H   0  0  0  0  0  0  0  0  0  0  0  0
   -2.2783   -0.5250    2.8892 H   0  0  0  0  0  0  0  0  0  0  0  0
   -4.7494   -0.3818    3.3284 H   0  0  0  0  0  0  0  0  0  0  0  0
   -4.2603    0.5588    1.9106 H   0  0  0  0  0  0  0  0  0  0  0  0
   -5.0533   -1.0085    1.6958 H   0  0  0  0  0  0  0  0  0  0  0  0
   -4.4239    1.4057   -1.8814 H   0  0  0  0  0  0  0  0  0  0  0  0
   -3.1627    2.2410   -0.9233 H   0  0  0  0  0  0  0  0  0  0  0  0
   -2.5870    0.4431   -3.3307 H   0  0  0  0  0  0  0  0  0  0  0  0
   -2.6093    2.2168   -3.3765 H   0  0  0  0  0  0  0  0  0  0  0  0
   -1.3998    1.3720   -2.4039 H   0  0  0  0  0  0  0  0  0  0  0  0
  1  2  1  0  0  0  0
  2  3  1  0  0  0  0
  3  4  2  0  0  0  0
  4  5  2  0  0  0  0
  4  6  2  0  0  0  0
  6  7  1  0  0  0  0
  7  8  1  0  0  0  0
  4  9  1  0  0  0  0
  9 10  1  0  0  0  0
 10 11  1  0  0  0  0
 11 12  1  0  0  0  0
 12 13  2  0  0  0  0
 12 14  2  0  0  0  0
 14 15  1  0  0  0  0
 15 16  1  0  0  0  0
 12 17  2  0  0  0  0
 17 18  1  0  0  0  0
 18 19  1  0  0  0  0
  1 20  1  0  0  0  0
  1 21  1  0  0  0  0
  1 22  1  0  0  0  0
  2 23  1  0  0  0  0
  2 24  1  0  0  0  0
  7 25  1  0  0  0  0
  7 26  1  0  0  0  0
  8 27  1  0  0  0  0
  8 28  1  0  0  0  0
  8 29  1  0  0  0  0
 10 30  1  0  0  0  0
 10 31  1  0  0  0  0
 15 32  1  0  0  0  0
 15 33  1  0  0  0  0
 16 34  1  0  0  0  0
 16 35  1  0  0  0  0
 16 36  1  0  0  0  0
 18 37  1  0  0  0  0
 18 38  1  0  0  0  0
 19 39  1  0  0  0  0
 19 40  1  0  0  0  0
 19 41  1  0  0  0  0
M  END
