 xtb: 6.7.1 (edcfbbe)
          04092505203D

 41 40  0     0  0            999 V2000
    4.5476   -0.7800   -2.0321 C   0  0  0  0  0  0  0  0  0  0  0  0
    3.6495   -1.9254   -1.6124 C   0  0  0  0  0  0  0  0  0  0  0  0
    3.0203   -1.7077   -0.3374 O   0  0  0  0  0  0  0  0  0  0  0  0
    2.2035   -0.4144    0.0879 P   0  0  0  0  0  0  0  0  0  0  0  0
    3.2147    1.1991    0.5760 S   0  0  0  0  0  0  0  0  0  0  0  0
    1.3209   -1.0011    1.2664 O   0  0  0  0  0  0  0  0  0  0  0  0
    1.6796   -0.8268    2.6512 C   0  0  0  0  0  0  0  0  0  0  0  0
    2.8714   -1.6856    3.0167 C   0  0  0  0  0  0  0  0  0  0  0  0
    0.7796   -0.1933   -1.4666 S   0  0  0  0  0  0  0  0  0  0  0  0
    0.2025    1.4433   -0.9527 C   0  0  0  0  0  0  0  0  0  0  0  0
   -0.7922    1.3955    0.5544 S   0  0  0  0  0  0  0  0  0  0  0  0
   -2.4813    0.4322   -0.3345 P   0  0  0  0  0  0  0  0  0  0  0  0
   -2.8738    0.9491   -2.1786 S   0  0  0  0  0  0  0  0  0  0  0  0
   -3.6085    0.6146    0.7712 O   0  0  0  0  0  0  0  0  0  0  0  0
   -3.9817    1.8604    1.3905 C   0  0  0  0  0  0  0  0  0  0  0  0
   -4.3336    2.9351    0.3838 C   0  0  0  0  0  0  0  0  0  0  0  0
   -2.2347   -1.1219   -0.2649 O   0  0  0  0  0  0  0  0  0  0  0  0
   -2.0026   -1.8432    0.9710 C   0  0  0  0  0  0  0  0  0  0  0  0
   -1.2432   -3.1096    0.6347 C   0  0  0  0  0  0  0  0  0  0  0  0
    3.9563    0.1190   -2.2019 H   0  0  0  0  0  0  0  0  0  0  0  0
    5.2818   -0.5687   -1.2582 H   0  0  0  0  0  0  0  0  0  0  0  0
    5.0608   -1.0426   -2.9517 H   0  0  0  0  0  0  0  0  0  0  0  0
    4.2189   -2.8448   -1.4639 H   0  0  0  0  0  0  0  0  0  0  0  0
    2.8642   -2.0922   -2.3554 H   0  0  0  0  0  0  0  0  0  0  0  0
    1.8939    0.2325    2.8271 H   0  0  0  0  0  0  0  0  0  0  0  0
    0.7835   -1.1190    3.1999 H   0  0  0  0  0  0  0  0  0  0  0  0
    3.0857   -1.5780    4.0752 H   0  0  0  0  0  0  0  0  0  0  0  0
    2.6686   -2.7285    2.7894 H   0  0  0  0  0  0  0  0  0  0  0  0
    3.7404   -1.3647    2.4429 H   0  0  0  0  0  0  0  0  0  0  0  0
   -0.4042    1.8323   -1.7712 H   0  0  0  0  0  0  0  0  0  0  0  0
    1.0608    2.0836   -0.7456 H   0  0  0  0  0  0  0  0  0  0  0  0
   -4.8425    1.5916    2.0053 H   0  0  0  0  0  0  0  0  0  0  0  0
   -3.1546    2.1840    2.0286 H   0  0  0  0  0  0  0  0  0  0  0  0
   -4.6894    3.8167    0.9071 H   0  0  0  0  0  0  0  0  0  0  0  0
   -3.4568    3.2012   -0.2049 H   0  0  0  0  0  0  0  0  0  0  0  0
   -5.1063    2.5814   -0.2947 H   0  0  0  0  0  0  0  0  0  0  0  0
   -1.4316   -1.2022    1.6495 H   0  0  0  0  0  0  0  0  0  0  0  0
   -2.9772   -2.0607    1.4118 H   0  0  0  0  0  0  0  0  0  0  0  0
   -1.1264   -3.7055    1.5341 H   0  0  0  0  0  0  0  0  0  0  0  0
   -1.7893   -3.6809   -0.1104 H   0  0  0  0  0  0  0  0  0  0  0  0
   -0.2612   -2.8646    0.2372 H   0  0  0  0  0  0  0  0  0  0  0  0
  1  2  1  0  0  0  0
  2  3  1  0  0  0  0
  3  4  2  0  0  0  0
  4  5  2  0  0  0  0
  4  6  2  0  0  0  0
  6  7  1  0  0  0  0
  7  8  1  0  0  0  0
  4  9  1  0  0  0  0
  9 10  1  0  0  0  0
 10 11  1  0  0  0  0
 11 12  1  0  0  0  0
 12 13  2  0  0  0  0
 12 14  2  0  0  0  0
 14 15  1  0  0  0  0
 15 16  1  0  0  0  0
 12 17  2  0  0  0  0
 17 18  1  0  0  0  0
 18 19  1  0  0  0  0
  1 20  1  0  0  0  0
  1 21  1  0  0  0  0
  1 22  1  0  0  0  0
  2 23  1  0  0  0  0
  2 24  1  0  0  0  0
  7 25  1  0  0  0  0
  7 26  1  0  0  0  0
  8 27  1  0  0  0  0
  8 28  1  0  0  0  0
  8 29  1  0  0  0  0
 10 30  1  0  0  0  0
 10 31  1  0  0  0  0
 15 32  1  0  0  0  0
 15 33  1  0  0  0  0
 16 34  1  0  0  0  0
 16 35  1  0  0  0  0
 16 36  1  0  0  0  0
 18 37  1  0  0  0  0
 18 38  1  0  0  0  0
 19 39  1  0  0  0  0
 19 40  1  0  0  0  0
 19 41  1  0  0  0  0
M  END
