 xtb: 6.7.1 (edcfbbe)
          04092505213D

 41 40  0     0  0            999 V2000
    2.0058    3.2547   -0.1197 C   0  0  0  0  0  0  0  0  0  0  0  0
    1.6816    2.0708    0.7676 C   0  0  0  0  0  0  0  0  0  0  0  0
    2.2597    0.9025    0.1531 O   0  0  0  0  0  0  0  0  0  0  0  0
    2.3160   -0.4889    0.9077 P   0  0  0  0  0  0  0  0  0  0  0  0
    2.8496   -0.4318    2.7896 S   0  0  0  0  0  0  0  0  0  0  0  0
    3.3094   -1.1938   -0.1067 O   0  0  0  0  0  0  0  0  0  0  0  0
    4.1014   -2.3278    0.2913 C   0  0  0  0  0  0  0  0  0  0  0  0
    3.2583   -3.5750    0.4692 C   0  0  0  0  0  0  0  0  0  0  0  0
    0.4173   -1.3890    0.5456 S   0  0  0  0  0  0  0  0  0  0  0  0
    0.3413   -1.1102   -1.2493 C   0  0  0  0  0  0  0  0  0  0  0  0
   -0.2394    0.5447   -1.7127 S   0  0  0  0  0  0  0  0  0  0  0  0
   -2.0884    0.4528   -0.6987 P   0  0  0  0  0  0  0  0  0  0  0  0
   -3.0179   -1.2790   -0.6956 S   0  0  0  0  0  0  0  0  0  0  0  0
   -2.8786    1.7134   -1.2513 O   0  0  0  0  0  0  0  0  0  0  0  0
   -3.0883    2.0317   -2.6400 C   0  0  0  0  0  0  0  0  0  0  0  0
   -3.6630    0.8754   -3.4316 C   0  0  0  0  0  0  0  0  0  0  0  0
   -1.6898    0.9884    0.7456 O   0  0  0  0  0  0  0  0  0  0  0  0
   -2.3987    0.5932    1.9330 C   0  0  0  0  0  0  0  0  0  0  0  0
   -3.7434    1.2837    2.0154 C   0  0  0  0  0  0  0  0  0  0  0  0
    1.5835    3.0970   -1.1085 H   0  0  0  0  0  0  0  0  0  0  0  0
    1.5825    4.1535    0.3162 H   0  0  0  0  0  0  0  0  0  0  0  0
    3.0822    3.3676   -0.2091 H   0  0  0  0  0  0  0  0  0  0  0  0
    0.5994    1.9299    0.8566 H   0  0  0  0  0  0  0  0  0  0  0  0
    2.1064    2.1829    1.7707 H   0  0  0  0  0  0  0  0  0  0  0  0
    4.8244   -2.4399   -0.5178 H   0  0  0  0  0  0  0  0  0  0  0  0
    4.6206   -2.0804    1.2226 H   0  0  0  0  0  0  0  0  0  0  0  0
    3.9058   -4.4154    0.6979 H   0  0  0  0  0  0  0  0  0  0  0  0
    2.5583   -3.4357    1.2929 H   0  0  0  0  0  0  0  0  0  0  0  0
    2.6969   -3.7912   -0.4363 H   0  0  0  0  0  0  0  0  0  0  0  0
   -0.3563   -1.8532   -1.6333 H   0  0  0  0  0  0  0  0  0  0  0  0
    1.3326   -1.2242   -1.6821 H   0  0  0  0  0  0  0  0  0  0  0  0
   -3.7798    2.8756   -2.6070 H   0  0  0  0  0  0  0  0  0  0  0  0
   -2.1319    2.3522   -3.0622 H   0  0  0  0  0  0  0  0  0  0  0  0
   -4.5781    0.5143   -2.9681 H   0  0  0  0  0  0  0  0  0  0  0  0
   -3.8784    1.2036   -4.4434 H   0  0  0  0  0  0  0  0  0  0  0  0
   -2.9494    0.0535   -3.4695 H   0  0  0  0  0  0  0  0  0  0  0  0
   -2.5167   -0.4959    1.9246 H   0  0  0  0  0  0  0  0  0  0  0  0
   -1.7375    0.8806    2.7523 H   0  0  0  0  0  0  0  0  0  0  0  0
   -4.2351    1.0106    2.9436 H   0  0  0  0  0  0  0  0  0  0  0  0
   -3.6149    2.3619    1.9735 H   0  0  0  0  0  0  0  0  0  0  0  0
   -4.3641    0.9707    1.1763 H   0  0  0  0  0  0  0  0  0  0  0  0
  1  2  1  0  0  0  0
  2  3  1  0  0  0  0
  3  4  2  0  0  0  0
  4  5  2  0  0  0  0
  4  6  2  0  0  0  0
  6  7  1  0  0  0  0
  7  8  1  0  0  0  0
  4  9  1  0  0  0  0
  9 10  1  0  0  0  0
 10 11  1  0  0  0  0
 11 12  1  0  0  0  0
 12 13  2  0  0  0  0
 12 14  2  0  0  0  0
 14 15  1  0  0  0  0
 15 16  1  0  0  0  0
 12 17  1  0  0  0  0
 17 18  1  0  0  0  0
 18 19  1  0  0  0  0
  1 20  1  0  0  0  0
  1 21  1  0  0  0  0
  1 22  1  0  0  0  0
  2 23  1  0  0  0  0
  2 24  1  0  0  0  0
  7 25  1  0  0  0  0
  7 26  1  0  0  0  0
  8 27  1  0  0  0  0
  8 28  1  0  0  0  0
  8 29  1  0  0  0  0
 10 30  1  0  0  0  0
 10 31  1  0  0  0  0
 15 32  1  0  0  0  0
 15 33  1  0  0  0  0
 16 34  1  0  0  0  0
 16 35  1  0  0  0  0
 16 36  1  0  0  0  0
 18 37  1  0  0  0  0
 18 38  1  0  0  0  0
 19 39  1  0  0  0  0
 19 40  1  0  0  0  0
 19 41  1  0  0  0  0
M  END
