 xtb: 6.7.1 (edcfbbe)
          04092505213D

 41 40  0     0  0            999 V2000
    4.4996    0.7755   -1.2518 C   0  0  0  0  0  0  0  0  0  0  0  0
    4.4222    0.8309    0.2604 C   0  0  0  0  0  0  0  0  0  0  0  0
    3.4855   -0.1140    0.8032 O   0  0  0  0  0  0  0  0  0  0  0  0
    1.9144   -0.0261    0.5417 P   0  0  0  0  0  0  0  0  0  0  0  0
    1.1966    1.7925    0.5630 S   0  0  0  0  0  0  0  0  0  0  0  0
    1.3650   -0.9468    1.7004 O   0  0  0  0  0  0  0  0  0  0  0  0
    1.8167   -2.3087    1.8940 C   0  0  0  0  0  0  0  0  0  0  0  0
    2.8411   -2.3796    3.0077 C   0  0  0  0  0  0  0  0  0  0  0  0
    1.6615   -1.1580   -1.2540 S   0  0  0  0  0  0  0  0  0  0  0  0
    0.4360   -0.1474   -2.1158 C   0  0  0  0  0  0  0  0  0  0  0  0
   -1.2169   -0.9209   -2.1941 S   0  0  0  0  0  0  0  0  0  0  0  0
   -2.1735    0.0223   -0.5876 P   0  0  0  0  0  0  0  0  0  0  0  0
   -4.0715   -0.4046   -0.3787 S   0  0  0  0  0  0  0  0  0  0  0  0
   -1.8538    1.5777   -0.7513 O   0  0  0  0  0  0  0  0  0  0  0  0
   -2.7493    2.4870   -1.4208 C   0  0  0  0  0  0  0  0  0  0  0  0
   -3.5474    3.2763   -0.4021 C   0  0  0  0  0  0  0  0  0  0  0  0
   -1.2035   -0.3733    0.6103 O   0  0  0  0  0  0  0  0  0  0  0  0
   -1.5999   -0.0290    1.9603 C   0  0  0  0  0  0  0  0  0  0  0  0
   -2.1807   -1.2359    2.6657 C   0  0  0  0  0  0  0  0  0  0  0  0
    5.3183    1.4032   -1.5891 H   0  0  0  0  0  0  0  0  0  0  0  0
    4.6651   -0.2452   -1.5867 H   0  0  0  0  0  0  0  0  0  0  0  0
    3.5722    1.1451   -1.6865 H   0  0  0  0  0  0  0  0  0  0  0  0
    4.1314    1.8320    0.5934 H   0  0  0  0  0  0  0  0  0  0  0  0
    5.3707    0.5493    0.7200 H   0  0  0  0  0  0  0  0  0  0  0  0
    0.9142   -2.8685    2.1479 H   0  0  0  0  0  0  0  0  0  0  0  0
    2.2260   -2.6874    0.9531 H   0  0  0  0  0  0  0  0  0  0  0  0
    2.4287   -1.9588    3.9206 H   0  0  0  0  0  0  0  0  0  0  0  0
    3.1057   -3.4183    3.1790 H   0  0  0  0  0  0  0  0  0  0  0  0
    3.7328   -1.8220    2.7347 H   0  0  0  0  0  0  0  0  0  0  0  0
    0.7639   -0.0491   -3.1468 H   0  0  0  0  0  0  0  0  0  0  0  0
    0.3602    0.8229   -1.6184 H   0  0  0  0  0  0  0  0  0  0  0  0
   -2.1030    3.1376   -2.0124 H   0  0  0  0  0  0  0  0  0  0  0  0
   -3.4134    1.9207   -2.0802 H   0  0  0  0  0  0  0  0  0  0  0  0
   -2.8743    3.7735    0.2914 H   0  0  0  0  0  0  0  0  0  0  0  0
   -4.1499    4.0181   -0.9160 H   0  0  0  0  0  0  0  0  0  0  0  0
   -4.2038    2.6099    0.1542 H   0  0  0  0  0  0  0  0  0  0  0  0
   -0.6860    0.3221    2.4430 H   0  0  0  0  0  0  0  0  0  0  0  0
   -2.3225    0.7908    1.9192 H   0  0  0  0  0  0  0  0  0  0  0  0
   -2.4187   -0.9680    3.6901 H   0  0  0  0  0  0  0  0  0  0  0  0
   -3.0880   -1.5627    2.1617 H   0  0  0  0  0  0  0  0  0  0  0  0
   -1.4629   -2.0511    2.6631 H   0  0  0  0  0  0  0  0  0  0  0  0
  1  2  1  0  0  0  0
  2  3  1  0  0  0  0
  3  4  2  0  0  0  0
  4  5  2  0  0  0  0
  4  6  2  0  0  0  0
  6  7  1  0  0  0  0
  7  8  1  0  0  0  0
  4  9  1  0  0  0  0
  9 10  1  0  0  0  0
 10 11  1  0  0  0  0
 11 12  1  0  0  0  0
 12 13  2  0  0  0  0
 12 14  2  0  0  0  0
 14 15  1  0  0  0  0
 15 16  1  0  0  0  0
 12 17  1  0  0  0  0
 17 18  1  0  0  0  0
 18 19  1  0  0  0  0
  1 20  1  0  0  0  0
  1 21  1  0  0  0  0
  1 22  1  0  0  0  0
  2 23  1  0  0  0  0
  2 24  1  0  0  0  0
  7 25  1  0  0  0  0
  7 26  1  0  0  0  0
  8 27  1  0  0  0  0
  8 28  1  0  0  0  0
  8 29  1  0  0  0  0
 10 30  1  0  0  0  0
 10 31  1  0  0  0  0
 15 32  1  0  0  0  0
 15 33  1  0  0  0  0
 16 34  1  0  0  0  0
 16 35  1  0  0  0  0
 16 36  1  0  0  0  0
 18 37  1  0  0  0  0
 18 38  1  0  0  0  0
 19 39  1  0  0  0  0
 19 40  1  0  0  0  0
 19 41  1  0  0  0  0
M  END
