 xtb: 6.7.1 (edcfbbe)
          04092505213D

 41 40  0     0  0            999 V2000
    1.9849    2.6466   -1.4207 C   0  0  0  0  0  0  0  0  0  0  0  0
    2.9124    1.8382   -0.5384 C   0  0  0  0  0  0  0  0  0  0  0  0
    2.2022    1.4123    0.6581 O   0  0  0  0  0  0  0  0  0  0  0  0
    2.0924   -0.1032    1.0723 P   0  0  0  0  0  0  0  0  0  0  0  0
    1.3249   -0.3732    2.8472 S   0  0  0  0  0  0  0  0  0  0  0  0
    3.6055   -0.5772    0.9163 O   0  0  0  0  0  0  0  0  0  0  0  0
    4.0070   -1.9114    1.2846 C   0  0  0  0  0  0  0  0  0  0  0  0
    5.5198   -1.9333    1.3694 C   0  0  0  0  0  0  0  0  0  0  0  0
    1.1182   -1.0927   -0.5615 S   0  0  0  0  0  0  0  0  0  0  0  0
   -0.3372   -1.7249    0.3145 C   0  0  0  0  0  0  0  0  0  0  0  0
   -1.4983   -0.4375    0.8207 S   0  0  0  0  0  0  0  0  0  0  0  0
   -2.1443    0.1577   -1.1291 P   0  0  0  0  0  0  0  0  0  0  0  0
   -1.9815   -1.2081   -2.5208 S   0  0  0  0  0  0  0  0  0  0  0  0
   -1.3309    1.4671   -1.4865 O   0  0  0  0  0  0  0  0  0  0  0  0
   -1.6396    2.7968   -1.0010 C   0  0  0  0  0  0  0  0  0  0  0  0
   -1.4045    2.9384    0.4888 C   0  0  0  0  0  0  0  0  0  0  0  0
   -3.6073    0.7373   -0.9004 O   0  0  0  0  0  0  0  0  0  0  0  0
   -4.7805   -0.0930   -0.9659 C   0  0  0  0  0  0  0  0  0  0  0  0
   -4.8302   -1.1144    0.1516 C   0  0  0  0  0  0  0  0  0  0  0  0
    1.1572    2.0293   -1.7635 H   0  0  0  0  0  0  0  0  0  0  0  0
    1.5943    3.4975   -0.8695 H   0  0  0  0  0  0  0  0  0  0  0  0
    2.5401    3.0020   -2.2831 H   0  0  0  0  0  0  0  0  0  0  0  0
    3.7521    2.4374   -0.1831 H   0  0  0  0  0  0  0  0  0  0  0  0
    3.2881    0.9577   -1.0637 H   0  0  0  0  0  0  0  0  0  0  0  0
    3.5476   -2.1593    2.2472 H   0  0  0  0  0  0  0  0  0  0  0  0
    3.6386   -2.6027    0.5210 H   0  0  0  0  0  0  0  0  0  0  0  0
    5.8464   -2.9311    1.6430 H   0  0  0  0  0  0  0  0  0  0  0  0
    5.9508   -1.6637    0.4096 H   0  0  0  0  0  0  0  0  0  0  0  0
    5.8599   -1.2256    2.1201 H   0  0  0  0  0  0  0  0  0  0  0  0
   -0.0294   -2.2288    1.2288 H   0  0  0  0  0  0  0  0  0  0  0  0
   -0.8233   -2.4071   -0.3825 H   0  0  0  0  0  0  0  0  0  0  0  0
   -0.9697    3.4362   -1.5778 H   0  0  0  0  0  0  0  0  0  0  0  0
   -2.6770    3.0224   -1.2532 H   0  0  0  0  0  0  0  0  0  0  0  0
   -0.3998    2.6140    0.7543 H   0  0  0  0  0  0  0  0  0  0  0  0
   -1.5266    3.9798    0.7700 H   0  0  0  0  0  0  0  0  0  0  0  0
   -2.1192    2.3360    1.0466 H   0  0  0  0  0  0  0  0  0  0  0  0
   -5.6047    0.6186   -0.8975 H   0  0  0  0  0  0  0  0  0  0  0  0
   -4.7956   -0.5901   -1.9406 H   0  0  0  0  0  0  0  0  0  0  0  0
   -4.6973   -0.6312    1.1163 H   0  0  0  0  0  0  0  0  0  0  0  0
   -5.7902   -1.6203    0.1307 H   0  0  0  0  0  0  0  0  0  0  0  0
   -4.0409   -1.8524    0.0168 H   0  0  0  0  0  0  0  0  0  0  0  0
  1  2  1  0  0  0  0
  2  3  1  0  0  0  0
  3  4  2  0  0  0  0
  4  5  2  0  0  0  0
  4  6  2  0  0  0  0
  6  7  1  0  0  0  0
  7  8  1  0  0  0  0
  4  9  1  0  0  0  0
  9 10  1  0  0  0  0
 10 11  1  0  0  0  0
 11 12  1  0  0  0  0
 12 13  2  0  0  0  0
 12 14  2  0  0  0  0
 14 15  1  0  0  0  0
 15 16  1  0  0  0  0
 12 17  2  0  0  0  0
 17 18  1  0  0  0  0
 18 19  1  0  0  0  0
  1 20  1  0  0  0  0
  1 21  1  0  0  0  0
  1 22  1  0  0  0  0
  2 23  1  0  0  0  0
  2 24  1  0  0  0  0
  7 25  1  0  0  0  0
  7 26  1  0  0  0  0
  8 27  1  0  0  0  0
  8 28  1  0  0  0  0
  8 29  1  0  0  0  0
 10 30  1  0  0  0  0
 10 31  1  0  0  0  0
 15 32  1  0  0  0  0
 15 33  1  0  0  0  0
 16 34  1  0  0  0  0
 16 35  1  0  0  0  0
 16 36  1  0  0  0  0
 18 37  1  0  0  0  0
 18 38  1  0  0  0  0
 19 39  1  0  0  0  0
 19 40  1  0  0  0  0
 19 41  1  0  0  0  0
M  END
