 xtb: 6.7.1 (edcfbbe)
          04092505203D

 41 40  0     0  0            999 V2000
    3.0915   -2.2101    2.4248 C   0  0  0  0  0  0  0  0  0  0  0  0
    1.7627   -2.1188    1.7049 C   0  0  0  0  0  0  0  0  0  0  0  0
    1.4863   -0.7739    1.2607 O   0  0  0  0  0  0  0  0  0  0  0  0
    2.3232   -0.0770    0.1084 P   0  0  0  0  0  0  0  0  0  0  0  0
    2.9928   -1.2603   -1.3102 S   0  0  0  0  0  0  0  0  0  0  0  0
    3.4402    0.6883    0.9380 O   0  0  0  0  0  0  0  0  0  0  0  0
    4.6262    1.2219    0.3247 C   0  0  0  0  0  0  0  0  0  0  0  0
    4.3184    2.3797   -0.6029 C   0  0  0  0  0  0  0  0  0  0  0  0
    0.9539    1.4309   -0.4539 S   0  0  0  0  0  0  0  0  0  0  0  0
    0.0791    0.4442   -1.6996 C   0  0  0  0  0  0  0  0  0  0  0  0
   -0.8745   -0.9151   -0.9877 S   0  0  0  0  0  0  0  0  0  0  0  0
   -2.6281    0.1904   -0.4266 P   0  0  0  0  0  0  0  0  0  0  0  0
   -2.8196    1.9629   -1.2262 S   0  0  0  0  0  0  0  0  0  0  0  0
   -2.6822    0.0634    1.1615 O   0  0  0  0  0  0  0  0  0  0  0  0
   -1.6841    0.5423    2.0780 C   0  0  0  0  0  0  0  0  0  0  0  0
   -1.6591    2.0544    2.1728 C   0  0  0  0  0  0  0  0  0  0  0  0
   -3.8261   -0.7305   -0.8591 O   0  0  0  0  0  0  0  0  0  0  0  0
   -3.9523   -2.1257   -0.4847 C   0  0  0  0  0  0  0  0  0  0  0  0
   -4.8669   -2.2803    0.7131 C   0  0  0  0  0  0  0  0  0  0  0  0
    3.1341   -1.4797    3.2284 H   0  0  0  0  0  0  0  0  0  0  0  0
    3.2119   -3.2082    2.8340 H   0  0  0  0  0  0  0  0  0  0  0  0
    3.9048   -2.0137    1.7271 H   0  0  0  0  0  0  0  0  0  0  0  0
    0.9268   -2.3544    2.3647 H   0  0  0  0  0  0  0  0  0  0  0  0
    1.7446   -2.7802    0.8327 H   0  0  0  0  0  0  0  0  0  0  0  0
    5.2405    1.5348    1.1698 H   0  0  0  0  0  0  0  0  0  0  0  0
    5.1255    0.4155   -0.2222 H   0  0  0  0  0  0  0  0  0  0  0  0
    3.7557    2.0267   -1.4664 H   0  0  0  0  0  0  0  0  0  0  0  0
    3.7283    3.1326   -0.0862 H   0  0  0  0  0  0  0  0  0  0  0  0
    5.2476    2.8224   -0.9472 H   0  0  0  0  0  0  0  0  0  0  0  0
    0.8036   -0.0057   -2.3775 H   0  0  0  0  0  0  0  0  0  0  0  0
   -0.5939    1.1265   -2.2201 H   0  0  0  0  0  0  0  0  0  0  0  0
   -1.9736    0.0934    3.0304 H   0  0  0  0  0  0  0  0  0  0  0  0
   -0.7060    0.1558    1.7757 H   0  0  0  0  0  0  0  0  0  0  0  0
   -1.3327    2.4923    1.2313 H   0  0  0  0  0  0  0  0  0  0  0  0
   -2.6512    2.4327    2.4055 H   0  0  0  0  0  0  0  0  0  0  0  0
   -0.9668    2.3505    2.9544 H   0  0  0  0  0  0  0  0  0  0  0  0
   -4.3718   -2.6070   -1.3699 H   0  0  0  0  0  0  0  0  0  0  0  0
   -2.9565   -2.5309   -0.2846 H   0  0  0  0  0  0  0  0  0  0  0  0
   -5.8362   -1.8395    0.4976 H   0  0  0  0  0  0  0  0  0  0  0  0
   -4.9930   -3.3367    0.9291 H   0  0  0  0  0  0  0  0  0  0  0  0
   -4.4424   -1.7826    1.5805 H   0  0  0  0  0  0  0  0  0  0  0  0
  1  2  1  0  0  0  0
  2  3  1  0  0  0  0
  3  4  2  0  0  0  0
  4  5  2  0  0  0  0
  4  6  2  0  0  0  0
  6  7  1  0  0  0  0
  7  8  1  0  0  0  0
  4  9  1  0  0  0  0
  9 10  1  0  0  0  0
 10 11  1  0  0  0  0
 11 12  1  0  0  0  0
 12 13  2  0  0  0  0
 12 14  2  0  0  0  0
 14 15  1  0  0  0  0
 15 16  1  0  0  0  0
 12 17  2  0  0  0  0
 17 18  1  0  0  0  0
 18 19  1  0  0  0  0
  1 20  1  0  0  0  0
  1 21  1  0  0  0  0
  1 22  1  0  0  0  0
  2 23  1  0  0  0  0
  2 24  1  0  0  0  0
  7 25  1  0  0  0  0
  7 26  1  0  0  0  0
  8 27  1  0  0  0  0
  8 28  1  0  0  0  0
  8 29  1  0  0  0  0
 10 30  1  0  0  0  0
 10 31  1  0  0  0  0
 15 32  1  0  0  0  0
 15 33  1  0  0  0  0
 16 34  1  0  0  0  0
 16 35  1  0  0  0  0
 16 36  1  0  0  0  0
 18 37  1  0  0  0  0
 18 38  1  0  0  0  0
 19 39  1  0  0  0  0
 19 40  1  0  0  0  0
 19 41  1  0  0  0  0
M  END
