 xtb: 6.7.1 (edcfbbe)
          04092505203D

 41 40  0     0  0            999 V2000
    3.2052    1.7595   -2.2882 C   0  0  0  0  0  0  0  0  0  0  0  0
    3.3315    0.2502   -2.2572 C   0  0  0  0  0  0  0  0  0  0  0  0
    2.3013   -0.3649   -1.4570 O   0  0  0  0  0  0  0  0  0  0  0  0
    2.1374   -0.1875    0.1025 P   0  0  0  0  0  0  0  0  0  0  0  0
    1.4515    1.4859    0.8795 S   0  0  0  0  0  0  0  0  0  0  0  0
    3.6279   -0.5063    0.5797 O   0  0  0  0  0  0  0  0  0  0  0  0
    4.0998   -0.2185    1.9048 C   0  0  0  0  0  0  0  0  0  0  0  0
    3.4666   -1.1234    2.9422 C   0  0  0  0  0  0  0  0  0  0  0  0
    1.0048   -1.9243    0.4802 S   0  0  0  0  0  0  0  0  0  0  0  0
   -0.2835   -1.2496    1.5849 C   0  0  0  0  0  0  0  0  0  0  0  0
   -1.9600   -1.3714    0.9134 S   0  0  0  0  0  0  0  0  0  0  0  0
   -1.9676    0.2928   -0.4166 P   0  0  0  0  0  0  0  0  0  0  0  0
   -0.7208    0.3127   -1.9243 S   0  0  0  0  0  0  0  0  0  0  0  0
   -1.7835    1.5525    0.5096 O   0  0  0  0  0  0  0  0  0  0  0  0
   -2.5959    1.8542    1.6717 C   0  0  0  0  0  0  0  0  0  0  0  0
   -3.7499    2.7638    1.3046 C   0  0  0  0  0  0  0  0  0  0  0  0
   -3.4997    0.3663   -0.8384 O   0  0  0  0  0  0  0  0  0  0  0  0
   -4.0278   -0.3568   -1.9635 C   0  0  0  0  0  0  0  0  0  0  0  0
   -3.9978   -1.8557   -1.7463 C   0  0  0  0  0  0  0  0  0  0  0  0
    3.9268    2.1707   -2.9869 H   0  0  0  0  0  0  0  0  0  0  0  0
    2.2004    2.0398   -2.5992 H   0  0  0  0  0  0  0  0  0  0  0  0
    3.3891    2.1757   -1.2983 H   0  0  0  0  0  0  0  0  0  0  0  0
    4.3042   -0.0583   -1.8664 H   0  0  0  0  0  0  0  0  0  0  0  0
    3.1697   -0.1819   -3.2462 H   0  0  0  0  0  0  0  0  0  0  0  0
    5.1776   -0.3728    1.8385 H   0  0  0  0  0  0  0  0  0  0  0  0
    3.8851    0.8318    2.1279 H   0  0  0  0  0  0  0  0  0  0  0  0
    3.5729   -2.1649    2.6496 H   0  0  0  0  0  0  0  0  0  0  0  0
    3.9508   -0.9649    3.9003 H   0  0  0  0  0  0  0  0  0  0  0  0
    2.4073   -0.8897    3.0383 H   0  0  0  0  0  0  0  0  0  0  0  0
   -0.0447   -0.2015    1.7921 H   0  0  0  0  0  0  0  0  0  0  0  0
   -0.2905   -1.8488    2.4913 H   0  0  0  0  0  0  0  0  0  0  0  0
   -2.9551    0.9174    2.1068 H   0  0  0  0  0  0  0  0  0  0  0  0
   -1.9024    2.3453    2.3578 H   0  0  0  0  0  0  0  0  0  0  0  0
   -4.4288    2.2562    0.6249 H   0  0  0  0  0  0  0  0  0  0  0  0
   -4.2841    3.0381    2.2090 H   0  0  0  0  0  0  0  0  0  0  0  0
   -3.3758    3.6626    0.8218 H   0  0  0  0  0  0  0  0  0  0  0  0
   -5.0484    0.0169   -2.0572 H   0  0  0  0  0  0  0  0  0  0  0  0
   -3.4480   -0.0841   -2.8509 H   0  0  0  0  0  0  0  0  0  0  0  0
   -4.5239   -2.3464   -2.5588 H   0  0  0  0  0  0  0  0  0  0  0  0
   -2.9675   -2.2088   -1.7309 H   0  0  0  0  0  0  0  0  0  0  0  0
   -4.4701   -2.1113   -0.8011 H   0  0  0  0  0  0  0  0  0  0  0  0
  1  2  1  0  0  0  0
  2  3  1  0  0  0  0
  3  4  2  0  0  0  0
  4  5  2  0  0  0  0
  4  6  2  0  0  0  0
  6  7  1  0  0  0  0
  7  8  1  0  0  0  0
  4  9  1  0  0  0  0
  9 10  1  0  0  0  0
 10 11  1  0  0  0  0
 11 12  1  0  0  0  0
 12 13  2  0  0  0  0
 12 14  2  0  0  0  0
 14 15  1  0  0  0  0
 15 16  1  0  0  0  0
 12 17  2  0  0  0  0
 17 18  1  0  0  0  0
 18 19  1  0  0  0  0
  1 20  1  0  0  0  0
  1 21  1  0  0  0  0
  1 22  1  0  0  0  0
  2 23  1  0  0  0  0
  2 24  1  0  0  0  0
  7 25  1  0  0  0  0
  7 26  1  0  0  0  0
  8 27  1  0  0  0  0
  8 28  1  0  0  0  0
  8 29  1  0  0  0  0
 10 30  1  0  0  0  0
 10 31  1  0  0  0  0
 15 32  1  0  0  0  0
 15 33  1  0  0  0  0
 16 34  1  0  0  0  0
 16 35  1  0  0  0  0
 16 36  1  0  0  0  0
 18 37  1  0  0  0  0
 18 38  1  0  0  0  0
 19 39  1  0  0  0  0
 19 40  1  0  0  0  0
 19 41  1  0  0  0  0
M  END
