 xtb: 6.7.1 (edcfbbe)
          04092505213D

 41 40  0     0  0            999 V2000
    4.4476    1.6346   -1.4733 C   0  0  0  0  0  0  0  0  0  0  0  0
    4.7803    0.2503   -0.9564 C   0  0  0  0  0  0  0  0  0  0  0  0
    3.6077   -0.5672   -0.7794 O   0  0  0  0  0  0  0  0  0  0  0  0
    2.4916   -0.2451    0.3056 P   0  0  0  0  0  0  0  0  0  0  0  0
    3.1268    0.3939    2.0389 S   0  0  0  0  0  0  0  0  0  0  0  0
    1.7447   -1.6272    0.4268 O   0  0  0  0  0  0  0  0  0  0  0  0
    1.3720   -2.4370   -0.7180 C   0  0  0  0  0  0  0  0  0  0  0  0
    0.4597   -3.5363   -0.2194 C   0  0  0  0  0  0  0  0  0  0  0  0
    1.1501    1.0652   -0.7161 S   0  0  0  0  0  0  0  0  0  0  0  0
    0.2886    1.6475    0.7635 C   0  0  0  0  0  0  0  0  0  0  0  0
   -0.8170    0.4125    1.5016 S   0  0  0  0  0  0  0  0  0  0  0  0
   -2.2427    0.2853   -0.0769 P   0  0  0  0  0  0  0  0  0  0  0  0
   -1.7770   -0.8402   -1.6181 S   0  0  0  0  0  0  0  0  0  0  0  0
   -2.4729    1.8327   -0.3225 O   0  0  0  0  0  0  0  0  0  0  0  0
   -3.6804    2.3950   -0.8858 C   0  0  0  0  0  0  0  0  0  0  0  0
   -3.9017    1.9615   -2.3197 C   0  0  0  0  0  0  0  0  0  0  0  0
   -3.5984   -0.1500    0.6301 O   0  0  0  0  0  0  0  0  0  0  0  0
   -3.9483   -1.5317    0.8095 C   0  0  0  0  0  0  0  0  0  0  0  0
   -3.2105   -2.1377    1.9858 C   0  0  0  0  0  0  0  0  0  0  0  0
    3.9170    2.2008   -0.7094 H   0  0  0  0  0  0  0  0  0  0  0  0
    5.3679    2.1542   -1.7201 H   0  0  0  0  0  0  0  0  0  0  0  0
    3.8210    1.5677   -2.3594 H   0  0  0  0  0  0  0  0  0  0  0  0
    5.3028    0.3127    0.0029 H   0  0  0  0  0  0  0  0  0  0  0  0
    5.3803   -0.3138   -1.6720 H   0  0  0  0  0  0  0  0  0  0  0  0
    0.8633   -1.8030   -1.4506 H   0  0  0  0  0  0  0  0  0  0  0  0
    2.2865   -2.8364   -1.1594 H   0  0  0  0  0  0  0  0  0  0  0  0
   -0.4588   -3.1071    0.1722 H   0  0  0  0  0  0  0  0  0  0  0  0
    0.2140   -4.1937   -1.0468 H   0  0  0  0  0  0  0  0  0  0  0  0
    0.9501   -4.1014    0.5677 H   0  0  0  0  0  0  0  0  0  0  0  0
   -0.2819    2.5267    0.4788 H   0  0  0  0  0  0  0  0  0  0  0  0
    1.0252    1.8800    1.5349 H   0  0  0  0  0  0  0  0  0  0  0  0
   -4.5216    2.1064   -0.2524 H   0  0  0  0  0  0  0  0  0  0  0  0
   -3.5134    3.4712   -0.8155 H   0  0  0  0  0  0  0  0  0  0  0  0
   -4.7631    2.4839   -2.7240 H   0  0  0  0  0  0  0  0  0  0  0  0
   -3.0259    2.1900   -2.9226 H   0  0  0  0  0  0  0  0  0  0  0  0
   -4.0816    0.8887   -2.3673 H   0  0  0  0  0  0  0  0  0  0  0  0
   -5.0264   -1.5187    0.9747 H   0  0  0  0  0  0  0  0  0  0  0  0
   -3.7195   -2.0712   -0.1165 H   0  0  0  0  0  0  0  0  0  0  0  0
   -3.5210   -3.1692    2.1167 H   0  0  0  0  0  0  0  0  0  0  0  0
   -2.1355   -2.1090    1.8071 H   0  0  0  0  0  0  0  0  0  0  0  0
   -3.4200   -1.5776    2.8931 H   0  0  0  0  0  0  0  0  0  0  0  0
  1  2  1  0  0  0  0
  2  3  1  0  0  0  0
  3  4  2  0  0  0  0
  4  5  2  0  0  0  0
  4  6  2  0  0  0  0
  6  7  1  0  0  0  0
  7  8  1  0  0  0  0
  4  9  1  0  0  0  0
  9 10  1  0  0  0  0
 10 11  1  0  0  0  0
 11 12  1  0  0  0  0
 12 13  2  0  0  0  0
 12 14  2  0  0  0  0
 14 15  1  0  0  0  0
 15 16  1  0  0  0  0
 12 17  2  0  0  0  0
 17 18  1  0  0  0  0
 18 19  1  0  0  0  0
  1 20  1  0  0  0  0
  1 21  1  0  0  0  0
  1 22  1  0  0  0  0
  2 23  1  0  0  0  0
  2 24  1  0  0  0  0
  7 25  1  0  0  0  0
  7 26  1  0  0  0  0
  8 27  1  0  0  0  0
  8 28  1  0  0  0  0
  8 29  1  0  0  0  0
 10 30  1  0  0  0  0
 10 31  1  0  0  0  0
 15 32  1  0  0  0  0
 15 33  1  0  0  0  0
 16 34  1  0  0  0  0
 16 35  1  0  0  0  0
 16 36  1  0  0  0  0
 18 37  1  0  0  0  0
 18 38  1  0  0  0  0
 19 39  1  0  0  0  0
 19 40  1  0  0  0  0
 19 41  1  0  0  0  0
M  END
