 xtb: 6.7.1 (edcfbbe)
          04092505213D

 41 40  0     0  0            999 V2000
    4.5775   -1.7775   -1.8874 C   0  0  0  0  0  0  0  0  0  0  0  0
    4.6136   -0.5387   -1.0145 C   0  0  0  0  0  0  0  0  0  0  0  0
    3.4854    0.3210   -1.3188 O   0  0  0  0  0  0  0  0  0  0  0  0
    2.2407    0.5132   -0.3723 P   0  0  0  0  0  0  0  0  0  0  0  0
    1.0057    1.7558   -1.2440 S   0  0  0  0  0  0  0  0  0  0  0  0
    2.9535    0.9242    0.9826 O   0  0  0  0  0  0  0  0  0  0  0  0
    2.3221    1.1767    2.2514 C   0  0  0  0  0  0  0  0  0  0  0  0
    1.7882    2.5922    2.3288 C   0  0  0  0  0  0  0  0  0  0  0  0
    1.4946   -1.4422    0.0419 S   0  0  0  0  0  0  0  0  0  0  0  0
    0.3172   -1.5621   -1.3419 C   0  0  0  0  0  0  0  0  0  0  0  0
   -1.3279   -2.1345   -0.8403 S   0  0  0  0  0  0  0  0  0  0  0  0
   -2.1030   -0.3811    0.0427 P   0  0  0  0  0  0  0  0  0  0  0  0
   -1.0936    0.4562    1.5038 S   0  0  0  0  0  0  0  0  0  0  0  0
   -3.5715   -0.8531    0.4223 O   0  0  0  0  0  0  0  0  0  0  0  0
   -3.8458   -1.6561    1.5892 C   0  0  0  0  0  0  0  0  0  0  0  0
   -4.3265   -0.7871    2.7355 C   0  0  0  0  0  0  0  0  0  0  0  0
   -2.3556    0.4966   -1.2454 O   0  0  0  0  0  0  0  0  0  0  0  0
   -2.5726    1.9207   -1.1897 C   0  0  0  0  0  0  0  0  0  0  0  0
   -3.8414    2.2657   -0.4413 C   0  0  0  0  0  0  0  0  0  0  0  0
    5.4926   -2.3416   -1.7380 H   0  0  0  0  0  0  0  0  0  0  0  0
    3.7290   -2.4047   -1.6256 H   0  0  0  0  0  0  0  0  0  0  0  0
    4.4991   -1.4923   -2.9329 H   0  0  0  0  0  0  0  0  0  0  0  0
    5.4918    0.0725   -1.2278 H   0  0  0  0  0  0  0  0  0  0  0  0
    4.5938   -0.7962    0.0460 H   0  0  0  0  0  0  0  0  0  0  0  0
    1.5199    0.4523    2.4120 H   0  0  0  0  0  0  0  0  0  0  0  0
    3.1201    1.0121    2.9778 H   0  0  0  0  0  0  0  0  0  0  0  0
    0.9789    2.7257    1.6137 H   0  0  0  0  0  0  0  0  0  0  0  0
    1.4014    2.7726    3.3262 H   0  0  0  0  0  0  0  0  0  0  0  0
    2.5766    3.3063    2.1065 H   0  0  0  0  0  0  0  0  0  0  0  0
    0.6804   -2.3074   -2.0445 H   0  0  0  0  0  0  0  0  0  0  0  0
    0.2321   -0.5779   -1.8105 H   0  0  0  0  0  0  0  0  0  0  0  0
   -4.6181   -2.3572    1.2680 H   0  0  0  0  0  0  0  0  0  0  0  0
   -2.9452   -2.2098    1.8689 H   0  0  0  0  0  0  0  0  0  0  0  0
   -3.5405   -0.0988    3.0393 H   0  0  0  0  0  0  0  0  0  0  0  0
   -5.1985   -0.2153    2.4307 H   0  0  0  0  0  0  0  0  0  0  0  0
   -4.5872   -1.4195    3.5778 H   0  0  0  0  0  0  0  0  0  0  0  0
   -1.6980    2.3869   -0.7247 H   0  0  0  0  0  0  0  0  0  0  0  0
   -2.6195    2.2152   -2.2389 H   0  0  0  0  0  0  0  0  0  0  0  0
   -3.7407    1.9790    0.6050 H   0  0  0  0  0  0  0  0  0  0  0  0
   -4.0134    3.3358   -0.4999 H   0  0  0  0  0  0  0  0  0  0  0  0
   -4.6864    1.7351   -0.8726 H   0  0  0  0  0  0  0  0  0  0  0  0
  1  2  1  0  0  0  0
  2  3  1  0  0  0  0
  3  4  2  0  0  0  0
  4  5  2  0  0  0  0
  4  6  2  0  0  0  0
  6  7  1  0  0  0  0
  7  8  1  0  0  0  0
  4  9  1  0  0  0  0
  9 10  1  0  0  0  0
 10 11  1  0  0  0  0
 11 12  1  0  0  0  0
 12 13  2  0  0  0  0
 12 14  2  0  0  0  0
 14 15  1  0  0  0  0
 15 16  1  0  0  0  0
 12 17  2  0  0  0  0
 17 18  1  0  0  0  0
 18 19  1  0  0  0  0
  1 20  1  0  0  0  0
  1 21  1  0  0  0  0
  1 22  1  0  0  0  0
  2 23  1  0  0  0  0
  2 24  1  0  0  0  0
  7 25  1  0  0  0  0
  7 26  1  0  0  0  0
  8 27  1  0  0  0  0
  8 28  1  0  0  0  0
  8 29  1  0  0  0  0
 10 30  1  0  0  0  0
 10 31  1  0  0  0  0
 15 32  1  0  0  0  0
 15 33  1  0  0  0  0
 16 34  1  0  0  0  0
 16 35  1  0  0  0  0
 16 36  1  0  0  0  0
 18 37  1  0  0  0  0
 18 38  1  0  0  0  0
 19 39  1  0  0  0  0
 19 40  1  0  0  0  0
 19 41  1  0  0  0  0
M  END
