 xtb: 6.7.1 (edcfbbe)
          04092505203D

 41 40  0     0  0            999 V2000
    4.4343    0.7610   -2.0096 C   0  0  0  0  0  0  0  0  0  0  0  0
    4.5875    0.1997   -0.6119 C   0  0  0  0  0  0  0  0  0  0  0  0
    3.5282    0.6109    0.2718 O   0  0  0  0  0  0  0  0  0  0  0  0
    1.9800    0.3775    0.0131 P   0  0  0  0  0  0  0  0  0  0  0  0
    1.0399    1.5832   -1.2191 S   0  0  0  0  0  0  0  0  0  0  0  0
    1.3870    0.5700    1.4620 O   0  0  0  0  0  0  0  0  0  0  0  0
    2.0002    0.1585    2.7112 C   0  0  0  0  0  0  0  0  0  0  0  0
    2.0045   -1.3458    2.8918 C   0  0  0  0  0  0  0  0  0  0  0  0
    1.8837   -1.6791   -0.5368 S   0  0  0  0  0  0  0  0  0  0  0  0
    0.1403   -1.7249   -0.9813 C   0  0  0  0  0  0  0  0  0  0  0  0
   -0.9525   -1.4554    0.4505 S   0  0  0  0  0  0  0  0  0  0  0  0
   -2.1910    0.1051   -0.2932 P   0  0  0  0  0  0  0  0  0  0  0  0
   -2.2251    0.3305   -2.2352 S   0  0  0  0  0  0  0  0  0  0  0  0
   -1.7965    1.4459    0.4335 O   0  0  0  0  0  0  0  0  0  0  0  0
   -1.7864    1.5821    1.8769 C   0  0  0  0  0  0  0  0  0  0  0  0
   -1.0483    2.8605    2.2128 C   0  0  0  0  0  0  0  0  0  0  0  0
   -3.5729   -0.2067    0.4378 O   0  0  0  0  0  0  0  0  0  0  0  0
   -4.2667   -1.4686    0.4346 C   0  0  0  0  0  0  0  0  0  0  0  0
   -4.5780   -1.9694   -0.9600 C   0  0  0  0  0  0  0  0  0  0  0  0
    5.2948    0.4811   -2.6085 H   0  0  0  0  0  0  0  0  0  0  0  0
    3.5329    0.3665   -2.4768 H   0  0  0  0  0  0  0  0  0  0  0  0
    4.3535    1.8451   -1.9774 H   0  0  0  0  0  0  0  0  0  0  0  0
    5.4879    0.5799   -0.1262 H   0  0  0  0  0  0  0  0  0  0  0  0
    4.6082   -0.8932   -0.6347 H   0  0  0  0  0  0  0  0  0  0  0  0
    3.0122    0.5645    2.7456 H   0  0  0  0  0  0  0  0  0  0  0  0
    1.3783    0.6482    3.4626 H   0  0  0  0  0  0  0  0  0  0  0  0
    1.0095   -1.7515    2.7214 H   0  0  0  0  0  0  0  0  0  0  0  0
    2.6970   -1.8163    2.1980 H   0  0  0  0  0  0  0  0  0  0  0  0
    2.3132   -1.5747    3.9070 H   0  0  0  0  0  0  0  0  0  0  0  0
   -0.0462   -2.7220   -1.3722 H   0  0  0  0  0  0  0  0  0  0  0  0
   -0.0817   -0.9581   -1.7298 H   0  0  0  0  0  0  0  0  0  0  0  0
   -2.8231    1.6112    2.2179 H   0  0  0  0  0  0  0  0  0  0  0  0
   -1.2864    0.7062    2.3018 H   0  0  0  0  0  0  0  0  0  0  0  0
   -1.5482    3.7092    1.7546 H   0  0  0  0  0  0  0  0  0  0  0  0
   -1.0260    2.9901    3.2900 H   0  0  0  0  0  0  0  0  0  0  0  0
   -0.0320    2.8120    1.8291 H   0  0  0  0  0  0  0  0  0  0  0  0
   -3.6571   -2.1941    0.9804 H   0  0  0  0  0  0  0  0  0  0  0  0
   -5.1797   -1.2561    0.9937 H   0  0  0  0  0  0  0  0  0  0  0  0
   -5.1280   -1.2165   -1.5195 H   0  0  0  0  0  0  0  0  0  0  0  0
   -3.6571   -2.1859   -1.4990 H   0  0  0  0  0  0  0  0  0  0  0  0
   -5.1726   -2.8747   -0.8921 H   0  0  0  0  0  0  0  0  0  0  0  0
  1  2  1  0  0  0  0
  2  3  1  0  0  0  0
  3  4  2  0  0  0  0
  4  5  2  0  0  0  0
  4  6  2  0  0  0  0
  6  7  1  0  0  0  0
  7  8  1  0  0  0  0
  4  9  1  0  0  0  0
  9 10  1  0  0  0  0
 10 11  1  0  0  0  0
 11 12  1  0  0  0  0
 12 13  2  0  0  0  0
 12 14  2  0  0  0  0
 14 15  1  0  0  0  0
 15 16  1  0  0  0  0
 12 17  2  0  0  0  0
 17 18  1  0  0  0  0
 18 19  1  0  0  0  0
  1 20  1  0  0  0  0
  1 21  1  0  0  0  0
  1 22  1  0  0  0  0
  2 23  1  0  0  0  0
  2 24  1  0  0  0  0
  7 25  1  0  0  0  0
  7 26  1  0  0  0  0
  8 27  1  0  0  0  0
  8 28  1  0  0  0  0
  8 29  1  0  0  0  0
 10 30  1  0  0  0  0
 10 31  1  0  0  0  0
 15 32  1  0  0  0  0
 15 33  1  0  0  0  0
 16 34  1  0  0  0  0
 16 35  1  0  0  0  0
 16 36  1  0  0  0  0
 18 37  1  0  0  0  0
 18 38  1  0  0  0  0
 19 39  1  0  0  0  0
 19 40  1  0  0  0  0
 19 41  1  0  0  0  0
M  END
