 xtb: 6.7.1 (edcfbbe)
          04092505203D

 41 40  0     0  0            999 V2000
    2.3465    1.0284   -2.6640 C   0  0  0  0  0  0  0  0  0  0  0  0
    1.3851   -0.1404   -2.5886 C   0  0  0  0  0  0  0  0  0  0  0  0
    0.9198   -0.3703   -1.2446 O   0  0  0  0  0  0  0  0  0  0  0  0
    1.9029   -1.0071   -0.1641 P   0  0  0  0  0  0  0  0  0  0  0  0
    3.3904   -2.0833   -0.8402 S   0  0  0  0  0  0  0  0  0  0  0  0
    0.8114   -1.8428    0.6366 O   0  0  0  0  0  0  0  0  0  0  0  0
    1.1981   -2.8510    1.5916 C   0  0  0  0  0  0  0  0  0  0  0  0
    1.5198   -2.2504    2.9463 C   0  0  0  0  0  0  0  0  0  0  0  0
    2.4598    0.6227    1.0692 S   0  0  0  0  0  0  0  0  0  0  0  0
    0.9393    1.6299    1.0655 C   0  0  0  0  0  0  0  0  0  0  0  0
   -0.5705    0.7396    1.5023 S   0  0  0  0  0  0  0  0  0  0  0  0
   -1.6405    0.8433   -0.3401 P   0  0  0  0  0  0  0  0  0  0  0  0
   -0.9613    2.1676   -1.6164 S   0  0  0  0  0  0  0  0  0  0  0  0
   -3.1211    1.1617    0.1595 O   0  0  0  0  0  0  0  0  0  0  0  0
   -3.4575    2.4540    0.6990 C   0  0  0  0  0  0  0  0  0  0  0  0
   -4.9673    2.5413    0.7926 C   0  0  0  0  0  0  0  0  0  0  0  0
   -1.8337   -0.5944   -0.9556 O   0  0  0  0  0  0  0  0  0  0  0  0
   -2.8024   -1.5708   -0.5013 C   0  0  0  0  0  0  0  0  0  0  0  0
   -2.6392   -1.9202    0.9622 C   0  0  0  0  0  0  0  0  0  0  0  0
    3.2183    0.8332   -2.0395 H   0  0  0  0  0  0  0  0  0  0  0  0
    2.6701    1.1557   -3.6920 H   0  0  0  0  0  0  0  0  0  0  0  0
    1.8599    1.9425   -2.3312 H   0  0  0  0  0  0  0  0  0  0  0  0
    1.8619   -1.0565   -2.9495 H   0  0  0  0  0  0  0  0  0  0  0  0
    0.4735    0.0538   -3.1560 H   0  0  0  0  0  0  0  0  0  0  0  0
    0.3352   -3.5172    1.6457 H   0  0  0  0  0  0  0  0  0  0  0  0
    2.0560   -3.4007    1.1892 H   0  0  0  0  0  0  0  0  0  0  0  0
    0.7067   -1.6065    3.2735 H   0  0  0  0  0  0  0  0  0  0  0  0
    1.6564   -3.0518    3.6653 H   0  0  0  0  0  0  0  0  0  0  0  0
    2.4347   -1.6631    2.8941 H   0  0  0  0  0  0  0  0  0  0  0  0
    0.7957    2.0856    0.0821 H   0  0  0  0  0  0  0  0  0  0  0  0
    1.1169    2.3872    1.8252 H   0  0  0  0  0  0  0  0  0  0  0  0
   -2.9901    2.5473    1.6832 H   0  0  0  0  0  0  0  0  0  0  0  0
   -3.0517    3.2249    0.0355 H   0  0  0  0  0  0  0  0  0  0  0  0
   -5.4100    2.4331   -0.1936 H   0  0  0  0  0  0  0  0  0  0  0  0
   -5.3476    1.7553    1.4384 H   0  0  0  0  0  0  0  0  0  0  0  0
   -5.2418    3.5074    1.2030 H   0  0  0  0  0  0  0  0  0  0  0  0
   -3.8007   -1.1775   -0.7034 H   0  0  0  0  0  0  0  0  0  0  0  0
   -2.6030   -2.4304   -1.1435 H   0  0  0  0  0  0  0  0  0  0  0  0
   -1.6170   -2.2309    1.1572 H   0  0  0  0  0  0  0  0  0  0  0  0
   -2.8680   -1.0589    1.5871 H   0  0  0  0  0  0  0  0  0  0  0  0
   -3.3170   -2.7305    1.2125 H   0  0  0  0  0  0  0  0  0  0  0  0
  1  2  1  0  0  0  0
  2  3  1  0  0  0  0
  3  4  1  0  0  0  0
  4  5  2  0  0  0  0
  4  6  2  0  0  0  0
  6  7  1  0  0  0  0
  7  8  1  0  0  0  0
  4  9  1  0  0  0  0
  9 10  1  0  0  0  0
 10 11  1  0  0  0  0
 11 12  1  0  0  0  0
 12 13  2  0  0  0  0
 12 14  2  0  0  0  0
 14 15  1  0  0  0  0
 15 16  1  0  0  0  0
 12 17  2  0  0  0  0
 17 18  1  0  0  0  0
 18 19  1  0  0  0  0
  1 20  1  0  0  0  0
  1 21  1  0  0  0  0
  1 22  1  0  0  0  0
  2 23  1  0  0  0  0
  2 24  1  0  0  0  0
  7 25  1  0  0  0  0
  7 26  1  0  0  0  0
  8 27  1  0  0  0  0
  8 28  1  0  0  0  0
  8 29  1  0  0  0  0
 10 30  1  0  0  0  0
 10 31  1  0  0  0  0
 15 32  1  0  0  0  0
 15 33  1  0  0  0  0
 16 34  1  0  0  0  0
 16 35  1  0  0  0  0
 16 36  1  0  0  0  0
 18 37  1  0  0  0  0
 18 38  1  0  0  0  0
 19 39  1  0  0  0  0
 19 40  1  0  0  0  0
 19 41  1  0  0  0  0
M  END
