 xtb: 6.7.1 (edcfbbe)
          04092505203D

 41 40  0     0  0            999 V2000
    4.5708    0.6297   -1.9642 C   0  0  0  0  0  0  0  0  0  0  0  0
    4.6681    0.0529   -0.5679 C   0  0  0  0  0  0  0  0  0  0  0  0
    3.6030    0.4976    0.2935 O   0  0  0  0  0  0  0  0  0  0  0  0
    2.0549    0.3270   -0.0078 P   0  0  0  0  0  0  0  0  0  0  0  0
    1.1956    1.5893   -1.2428 S   0  0  0  0  0  0  0  0  0  0  0  0
    1.4301    0.5194    1.4284 O   0  0  0  0  0  0  0  0  0  0  0  0
    1.9956    0.0597    2.6847 C   0  0  0  0  0  0  0  0  0  0  0  0
    1.9549   -1.4479    2.8287 C   0  0  0  0  0  0  0  0  0  0  0  0
    1.8924   -1.7120   -0.5966 S   0  0  0  0  0  0  0  0  0  0  0  0
    0.1587   -1.6800   -1.0803 C   0  0  0  0  0  0  0  0  0  0  0  0
   -0.9620   -1.4205    0.3322 S   0  0  0  0  0  0  0  0  0  0  0  0
   -2.0784    0.2560   -0.3500 P   0  0  0  0  0  0  0  0  0  0  0  0
   -2.1148    0.5135   -2.2870 S   0  0  0  0  0  0  0  0  0  0  0  0
   -1.5719    1.5088    0.4584 O   0  0  0  0  0  0  0  0  0  0  0  0
   -1.5431    1.5643    1.9058 C   0  0  0  0  0  0  0  0  0  0  0  0
   -2.7699    2.2683    2.4464 C   0  0  0  0  0  0  0  0  0  0  0  0
   -3.5094    0.0145    0.3072 O   0  0  0  0  0  0  0  0  0  0  0  0
   -4.4859   -0.8784   -0.2618 C   0  0  0  0  0  0  0  0  0  0  0  0
   -4.4276   -2.2510    0.3803 C   0  0  0  0  0  0  0  0  0  0  0  0
    5.4333    0.3193   -2.5450 H   0  0  0  0  0  0  0  0  0  0  0  0
    3.6654    0.2752   -2.4552 H   0  0  0  0  0  0  0  0  0  0  0  0
    4.5329    1.7159   -1.9255 H   0  0  0  0  0  0  0  0  0  0  0  0
    5.5697    0.3953   -0.0569 H   0  0  0  0  0  0  0  0  0  0  0  0
    4.6478   -1.0397   -0.5991 H   0  0  0  0  0  0  0  0  0  0  0  0
    3.0165    0.4374    2.7573 H   0  0  0  0  0  0  0  0  0  0  0  0
    1.3649    0.5471    3.4301 H   0  0  0  0  0  0  0  0  0  0  0  0
    0.9548   -1.8220    2.6209 H   0  0  0  0  0  0  0  0  0  0  0  0
    2.6546   -1.9208    2.1440 H   0  0  0  0  0  0  0  0  0  0  0  0
    2.2281   -1.7081    3.8465 H   0  0  0  0  0  0  0  0  0  0  0  0
   -0.0544   -2.6556   -1.5097 H   0  0  0  0  0  0  0  0  0  0  0  0
   -0.0153   -0.8820   -1.8080 H   0  0  0  0  0  0  0  0  0  0  0  0
   -1.4633    0.5453    2.2957 H   0  0  0  0  0  0  0  0  0  0  0  0
   -0.6297    2.1184    2.1324 H   0  0  0  0  0  0  0  0  0  0  0  0
   -3.6658    1.7012    2.2092 H   0  0  0  0  0  0  0  0  0  0  0  0
   -2.6768    2.3621    3.5239 H   0  0  0  0  0  0  0  0  0  0  0  0
   -2.8538    3.2577    2.0048 H   0  0  0  0  0  0  0  0  0  0  0  0
   -5.4439   -0.3930   -0.0658 H   0  0  0  0  0  0  0  0  0  0  0  0
   -4.3234   -0.9319   -1.3433 H   0  0  0  0  0  0  0  0  0  0  0  0
   -3.4848   -2.7430    0.1564 H   0  0  0  0  0  0  0  0  0  0  0  0
   -4.5287   -2.1624    1.4582 H   0  0  0  0  0  0  0  0  0  0  0  0
   -5.2427   -2.8536   -0.0075 H   0  0  0  0  0  0  0  0  0  0  0  0
  1  2  1  0  0  0  0
  2  3  1  0  0  0  0
  3  4  2  0  0  0  0
  4  5  2  0  0  0  0
  4  6  2  0  0  0  0
  6  7  1  0  0  0  0
  7  8  1  0  0  0  0
  4  9  1  0  0  0  0
  9 10  1  0  0  0  0
 10 11  1  0  0  0  0
 11 12  1  0  0  0  0
 12 13  2  0  0  0  0
 12 14  2  0  0  0  0
 14 15  1  0  0  0  0
 15 16  1  0  0  0  0
 12 17  2  0  0  0  0
 17 18  1  0  0  0  0
 18 19  1  0  0  0  0
  1 20  1  0  0  0  0
  1 21  1  0  0  0  0
  1 22  1  0  0  0  0
  2 23  1  0  0  0  0
  2 24  1  0  0  0  0
  7 25  1  0  0  0  0
  7 26  1  0  0  0  0
  8 27  1  0  0  0  0
  8 28  1  0  0  0  0
  8 29  1  0  0  0  0
 10 30  1  0  0  0  0
 10 31  1  0  0  0  0
 15 32  1  0  0  0  0
 15 33  1  0  0  0  0
 16 34  1  0  0  0  0
 16 35  1  0  0  0  0
 16 36  1  0  0  0  0
 18 37  1  0  0  0  0
 18 38  1  0  0  0  0
 19 39  1  0  0  0  0
 19 40  1  0  0  0  0
 19 41  1  0  0  0  0
M  END
