 xtb: 6.7.1 (edcfbbe)
          04092505203D

 41 40  0     0  0            999 V2000
    4.4638    0.3387   -2.3018 C   0  0  0  0  0  0  0  0  0  0  0  0
    4.4402    1.0001   -0.9392 C   0  0  0  0  0  0  0  0  0  0  0  0
    3.6833    0.2373    0.0163 O   0  0  0  0  0  0  0  0  0  0  0  0
    2.1048    0.0600   -0.0884 P   0  0  0  0  0  0  0  0  0  0  0  0
    1.1752    1.7020   -0.6419 S   0  0  0  0  0  0  0  0  0  0  0  0
    1.7596   -0.4908    1.3550 O   0  0  0  0  0  0  0  0  0  0  0  0
    1.7836    0.3663    2.5176 C   0  0  0  0  0  0  0  0  0  0  0  0
    1.0195   -0.3333    3.6223 C   0  0  0  0  0  0  0  0  0  0  0  0
    1.8462   -1.6968   -1.2053 S   0  0  0  0  0  0  0  0  0  0  0  0
    0.0527   -1.6437   -1.4618 C   0  0  0  0  0  0  0  0  0  0  0  0
   -0.9008   -1.8212    0.0779 S   0  0  0  0  0  0  0  0  0  0  0  0
   -1.9771   -0.0050    0.0677 P   0  0  0  0  0  0  0  0  0  0  0  0
   -2.1705    0.8579   -1.6894 S   0  0  0  0  0  0  0  0  0  0  0  0
   -1.2528    0.7450    1.2628 O   0  0  0  0  0  0  0  0  0  0  0  0
   -1.8346    1.8422    2.0013 C   0  0  0  0  0  0  0  0  0  0  0  0
   -2.0238    3.0761    1.1433 C   0  0  0  0  0  0  0  0  0  0  0  0
   -3.3703   -0.3499    0.7570 O   0  0  0  0  0  0  0  0  0  0  0  0
   -4.5183   -0.7723    0.0025 C   0  0  0  0  0  0  0  0  0  0  0  0
   -4.3414   -2.1619   -0.5742 C   0  0  0  0  0  0  0  0  0  0  0  0
    3.4658    0.3532   -2.7386 H   0  0  0  0  0  0  0  0  0  0  0  0
    5.1407    0.8814   -2.9537 H   0  0  0  0  0  0  0  0  0  0  0  0
    4.7920   -0.6940   -2.2150 H   0  0  0  0  0  0  0  0  0  0  0  0
    4.0029    2.0017   -1.0047 H   0  0  0  0  0  0  0  0  0  0  0  0
    5.4364    1.0561   -0.4988 H   0  0  0  0  0  0  0  0  0  0  0  0
    2.8285    0.5324    2.7913 H   0  0  0  0  0  0  0  0  0  0  0  0
    1.3268    1.3251    2.2486 H   0  0  0  0  0  0  0  0  0  0  0  0
   -0.0092   -0.5003    3.3134 H   0  0  0  0  0  0  0  0  0  0  0  0
    1.4788   -1.2941    3.8355 H   0  0  0  0  0  0  0  0  0  0  0  0
    1.0356    0.2825    4.5157 H   0  0  0  0  0  0  0  0  0  0  0  0
   -0.1708   -2.4934   -2.1020 H   0  0  0  0  0  0  0  0  0  0  0  0
   -0.2346   -0.7036   -1.9429 H   0  0  0  0  0  0  0  0  0  0  0  0
   -2.7838    1.5065    2.4251 H   0  0  0  0  0  0  0  0  0  0  0  0
   -1.1136    2.0226    2.8008 H   0  0  0  0  0  0  0  0  0  0  0  0
   -2.7798    2.8963    0.3805 H   0  0  0  0  0  0  0  0  0  0  0  0
   -2.3375    3.9072    1.7666 H   0  0  0  0  0  0  0  0  0  0  0  0
   -1.0909    3.3311    0.6430 H   0  0  0  0  0  0  0  0  0  0  0  0
   -5.3345   -0.7357    0.7252 H   0  0  0  0  0  0  0  0  0  0  0  0
   -4.6925   -0.0450   -0.7970 H   0  0  0  0  0  0  0  0  0  0  0  0
   -4.0459   -2.8600    0.2048 H   0  0  0  0  0  0  0  0  0  0  0  0
   -5.2769   -2.4875   -1.0172 H   0  0  0  0  0  0  0  0  0  0  0  0
   -3.5719   -2.1477   -1.3445 H   0  0  0  0  0  0  0  0  0  0  0  0
  1  2  1  0  0  0  0
  2  3  1  0  0  0  0
  3  4  2  0  0  0  0
  4  5  2  0  0  0  0
  4  6  2  0  0  0  0
  6  7  1  0  0  0  0
  7  8  1  0  0  0  0
  4  9  1  0  0  0  0
  9 10  1  0  0  0  0
 10 11  1  0  0  0  0
 11 12  1  0  0  0  0
 12 13  2  0  0  0  0
 12 14  2  0  0  0  0
 14 15  1  0  0  0  0
 15 16  1  0  0  0  0
 12 17  2  0  0  0  0
 17 18  1  0  0  0  0
 18 19  1  0  0  0  0
  1 20  1  0  0  0  0
  1 21  1  0  0  0  0
  1 22  1  0  0  0  0
  2 23  1  0  0  0  0
  2 24  1  0  0  0  0
  7 25  1  0  0  0  0
  7 26  1  0  0  0  0
  8 27  1  0  0  0  0
  8 28  1  0  0  0  0
  8 29  1  0  0  0  0
 10 30  1  0  0  0  0
 10 31  1  0  0  0  0
 15 32  1  0  0  0  0
 15 33  1  0  0  0  0
 16 34  1  0  0  0  0
 16 35  1  0  0  0  0
 16 36  1  0  0  0  0
 18 37  1  0  0  0  0
 18 38  1  0  0  0  0
 19 39  1  0  0  0  0
 19 40  1  0  0  0  0
 19 41  1  0  0  0  0
M  END
