 xtb: 6.7.1 (edcfbbe)
          04092505203D

 41 40  0     0  0            999 V2000
    4.6754   -1.1320   -1.3632 C   0  0  0  0  0  0  0  0  0  0  0  0
    4.3838   -0.7721    0.0782 C   0  0  0  0  0  0  0  0  0  0  0  0
    3.4950    0.3535    0.2089 O   0  0  0  0  0  0  0  0  0  0  0  0
    2.0397    0.4687   -0.4271 P   0  0  0  0  0  0  0  0  0  0  0  0
    1.9106    0.8125   -2.3475 S   0  0  0  0  0  0  0  0  0  0  0  0
    1.4502    1.6724    0.4008 O   0  0  0  0  0  0  0  0  0  0  0  0
    1.4804    1.7408    1.8462 C   0  0  0  0  0  0  0  0  0  0  0  0
    2.6060    2.6396    2.3143 C   0  0  0  0  0  0  0  0  0  0  0  0
    1.1361   -1.3285    0.2655 S   0  0  0  0  0  0  0  0  0  0  0  0
   -0.0249   -1.6640   -1.0956 C   0  0  0  0  0  0  0  0  0  0  0  0
   -1.7125   -1.9125   -0.5206 S   0  0  0  0  0  0  0  0  0  0  0  0
   -2.0709    0.0723    0.1624 P   0  0  0  0  0  0  0  0  0  0  0  0
   -1.4505    1.4688   -1.0706 S   0  0  0  0  0  0  0  0  0  0  0  0
   -1.3758    0.2875    1.5631 O   0  0  0  0  0  0  0  0  0  0  0  0
   -1.8012   -0.2729    2.8334 C   0  0  0  0  0  0  0  0  0  0  0  0
   -1.5993   -1.7723    2.9101 C   0  0  0  0  0  0  0  0  0  0  0  0
   -3.6040    0.0455    0.5695 O   0  0  0  0  0  0  0  0  0  0  0  0
   -4.6666   -0.4905   -0.2409 C   0  0  0  0  0  0  0  0  0  0  0  0
   -4.7385    0.1507   -1.6104 C   0  0  0  0  0  0  0  0  0  0  0  0
    3.7676   -1.4698   -1.8603 H   0  0  0  0  0  0  0  0  0  0  0  0
    5.0533   -0.2661   -1.9016 H   0  0  0  0  0  0  0  0  0  0  0  0
    5.4143   -1.9262   -1.3928 H   0  0  0  0  0  0  0  0  0  0  0  0
    5.2872   -0.4437    0.5953 H   0  0  0  0  0  0  0  0  0  0  0  0
    3.9406   -1.6204    0.6072 H   0  0  0  0  0  0  0  0  0  0  0  0
    0.5032    2.1453    2.1189 H   0  0  0  0  0  0  0  0  0  0  0  0
    1.5840    0.7282    2.2471 H   0  0  0  0  0  0  0  0  0  0  0  0
    2.5704    2.7194    3.3962 H   0  0  0  0  0  0  0  0  0  0  0  0
    3.5655    2.2284    2.0123 H   0  0  0  0  0  0  0  0  0  0  0  0
    2.4963    3.6279    1.8759 H   0  0  0  0  0  0  0  0  0  0  0  0
    0.2712   -2.5933   -1.5757 H   0  0  0  0  0  0  0  0  0  0  0  0
    0.0175   -0.8250   -1.7969 H   0  0  0  0  0  0  0  0  0  0  0  0
   -1.1715    0.2503    3.5549 H   0  0  0  0  0  0  0  0  0  0  0  0
   -2.8473   -0.0056    2.9901 H   0  0  0  0  0  0  0  0  0  0  0  0
   -0.5832   -2.0337    2.6225 H   0  0  0  0  0  0  0  0  0  0  0  0
   -1.7746   -2.0957    3.9314 H   0  0  0  0  0  0  0  0  0  0  0  0
   -2.2933   -2.2900    2.2524 H   0  0  0  0  0  0  0  0  0  0  0  0
   -4.5185   -1.5703   -0.3276 H   0  0  0  0  0  0  0  0  0  0  0  0
   -5.5642   -0.2827    0.3443 H   0  0  0  0  0  0  0  0  0  0  0  0
   -3.8344   -0.0693   -2.1767 H   0  0  0  0  0  0  0  0  0  0  0  0
   -5.5968   -0.2391   -2.1480 H   0  0  0  0  0  0  0  0  0  0  0  0
   -4.8283    1.2308   -1.5206 H   0  0  0  0  0  0  0  0  0  0  0  0
  1  2  1  0  0  0  0
  2  3  1  0  0  0  0
  3  4  2  0  0  0  0
  4  5  2  0  0  0  0
  4  6  2  0  0  0  0
  6  7  1  0  0  0  0
  7  8  1  0  0  0  0
  4  9  1  0  0  0  0
  9 10  1  0  0  0  0
 10 11  1  0  0  0  0
 11 12  1  0  0  0  0
 12 13  2  0  0  0  0
 12 14  2  0  0  0  0
 14 15  1  0  0  0  0
 15 16  1  0  0  0  0
 12 17  2  0  0  0  0
 17 18  1  0  0  0  0
 18 19  1  0  0  0  0
  1 20  1  0  0  0  0
  1 21  1  0  0  0  0
  1 22  1  0  0  0  0
  2 23  1  0  0  0  0
  2 24  1  0  0  0  0
  7 25  1  0  0  0  0
  7 26  1  0  0  0  0
  8 27  1  0  0  0  0
  8 28  1  0  0  0  0
  8 29  1  0  0  0  0
 10 30  1  0  0  0  0
 10 31  1  0  0  0  0
 15 32  1  0  0  0  0
 15 33  1  0  0  0  0
 16 34  1  0  0  0  0
 16 35  1  0  0  0  0
 16 36  1  0  0  0  0
 18 37  1  0  0  0  0
 18 38  1  0  0  0  0
 19 39  1  0  0  0  0
 19 40  1  0  0  0  0
 19 41  1  0  0  0  0
M  END
