 xtb: 6.7.1 (edcfbbe)
          04092505213D

 41 40  0     0  0            999 V2000
    5.2367   -1.3434   -2.0652 C   0  0  0  0  0  0  0  0  0  0  0  0
    3.7435   -1.3032   -1.8099 C   0  0  0  0  0  0  0  0  0  0  0  0
    3.5210   -0.5543   -0.6002 O   0  0  0  0  0  0  0  0  0  0  0  0
    2.0611   -0.0768   -0.1747 P   0  0  0  0  0  0  0  0  0  0  0  0
    1.1223    0.8865   -1.6065 S   0  0  0  0  0  0  0  0  0  0  0  0
    2.3991    0.6677    1.1719 O   0  0  0  0  0  0  0  0  0  0  0  0
    2.6068    2.0919    1.2447 C   0  0  0  0  0  0  0  0  0  0  0  0
    3.8624    2.5134    0.5120 C   0  0  0  0  0  0  0  0  0  0  0  0
    1.1576   -1.8549    0.5234 S   0  0  0  0  0  0  0  0  0  0  0  0
   -0.2786   -1.9554   -0.6025 C   0  0  0  0  0  0  0  0  0  0  0  0
   -1.8851   -1.8585    0.2263 S   0  0  0  0  0  0  0  0  0  0  0  0
   -2.0446    0.2486    0.4940 P   0  0  0  0  0  0  0  0  0  0  0  0
   -0.7115    1.1241    1.6291 S   0  0  0  0  0  0  0  0  0  0  0  0
   -3.5380    0.3781    1.0184 O   0  0  0  0  0  0  0  0  0  0  0  0
   -3.9088   -0.0168    2.3555 C   0  0  0  0  0  0  0  0  0  0  0  0
   -5.2645    0.5884    2.6573 C   0  0  0  0  0  0  0  0  0  0  0  0
   -2.1292    0.8827   -0.9385 O   0  0  0  0  0  0  0  0  0  0  0  0
   -3.1201    0.4870   -1.9269 C   0  0  0  0  0  0  0  0  0  0  0  0
   -2.5279    0.7240   -3.3001 C   0  0  0  0  0  0  0  0  0  0  0  0
    5.6202   -0.3368   -2.2043 H   0  0  0  0  0  0  0  0  0  0  0  0
    5.7433   -1.7988   -1.2193 H   0  0  0  0  0  0  0  0  0  0  0  0
    5.4295   -1.9277   -2.9588 H   0  0  0  0  0  0  0  0  0  0  0  0
    3.3364   -2.3092   -1.6701 H   0  0  0  0  0  0  0  0  0  0  0  0
    3.2078   -0.8090   -2.6276 H   0  0  0  0  0  0  0  0  0  0  0  0
    1.7217    2.5928    0.8385 H   0  0  0  0  0  0  0  0  0  0  0  0
    2.6679    2.2880    2.3160 H   0  0  0  0  0  0  0  0  0  0  0  0
    4.7170    1.9553    0.8854 H   0  0  0  0  0  0  0  0  0  0  0  0
    3.7509    2.3171   -0.5541 H   0  0  0  0  0  0  0  0  0  0  0  0
    4.0261    3.5760    0.6614 H   0  0  0  0  0  0  0  0  0  0  0  0
   -0.2561   -2.9330   -1.0757 H   0  0  0  0  0  0  0  0  0  0  0  0
   -0.1965   -1.1485   -1.3369 H   0  0  0  0  0  0  0  0  0  0  0  0
   -3.9403   -1.1090    2.3899 H   0  0  0  0  0  0  0  0  0  0  0  0
   -3.1421    0.3426    3.0498 H   0  0  0  0  0  0  0  0  0  0  0  0
   -5.9964    0.2351    1.9371 H   0  0  0  0  0  0  0  0  0  0  0  0
   -5.5703    0.2950    3.6560 H   0  0  0  0  0  0  0  0  0  0  0  0
   -5.2094    1.6721    2.6025 H   0  0  0  0  0  0  0  0  0  0  0  0
   -3.3730   -0.5654   -1.7701 H   0  0  0  0  0  0  0  0  0  0  0  0
   -4.0053    1.1018   -1.7576 H   0  0  0  0  0  0  0  0  0  0  0  0
   -1.6250    0.1334   -3.4327 H   0  0  0  0  0  0  0  0  0  0  0  0
   -3.2556    0.4458   -4.0552 H   0  0  0  0  0  0  0  0  0  0  0  0
   -2.2655    1.7717   -3.4164 H   0  0  0  0  0  0  0  0  0  0  0  0
  1  2  1  0  0  0  0
  2  3  1  0  0  0  0
  3  4  2  0  0  0  0
  4  5  2  0  0  0  0
  4  6  2  0  0  0  0
  6  7  1  0  0  0  0
  7  8  1  0  0  0  0
  4  9  1  0  0  0  0
  9 10  1  0  0  0  0
 10 11  1  0  0  0  0
 11 12  1  0  0  0  0
 12 13  2  0  0  0  0
 12 14  2  0  0  0  0
 14 15  1  0  0  0  0
 15 16  1  0  0  0  0
 12 17  2  0  0  0  0
 17 18  1  0  0  0  0
 18 19  1  0  0  0  0
  1 20  1  0  0  0  0
  1 21  1  0  0  0  0
  1 22  1  0  0  0  0
  2 23  1  0  0  0  0
  2 24  1  0  0  0  0
  7 25  1  0  0  0  0
  7 26  1  0  0  0  0
  8 27  1  0  0  0  0
  8 28  1  0  0  0  0
  8 29  1  0  0  0  0
 10 30  1  0  0  0  0
 10 31  1  0  0  0  0
 15 32  1  0  0  0  0
 15 33  1  0  0  0  0
 16 34  1  0  0  0  0
 16 35  1  0  0  0  0
 16 36  1  0  0  0  0
 18 37  1  0  0  0  0
 18 38  1  0  0  0  0
 19 39  1  0  0  0  0
 19 40  1  0  0  0  0
 19 41  1  0  0  0  0
M  END
