 xtb: 6.7.1 (edcfbbe)
          04092505203D

 41 40  0     0  0            999 V2000
    3.9526   -1.7627   -2.2757 C   0  0  0  0  0  0  0  0  0  0  0  0
    4.4758   -1.5551   -0.8696 C   0  0  0  0  0  0  0  0  0  0  0  0
    3.4183   -1.3489    0.0858 O   0  0  0  0  0  0  0  0  0  0  0  0
    2.4734   -0.0718    0.0550 P   0  0  0  0  0  0  0  0  0  0  0  0
    3.3335    1.6289   -0.3738 S   0  0  0  0  0  0  0  0  0  0  0  0
    1.8518   -0.0682    1.5037 O   0  0  0  0  0  0  0  0  0  0  0  0
    1.2426   -1.2360    2.1063 C   0  0  0  0  0  0  0  0  0  0  0  0
    2.1985   -1.8842    3.0861 C   0  0  0  0  0  0  0  0  0  0  0  0
    0.8703   -0.6594   -1.2343 S   0  0  0  0  0  0  0  0  0  0  0  0
    0.2049    1.0024   -1.4566 C   0  0  0  0  0  0  0  0  0  0  0  0
   -0.5542    1.6655    0.0540 S   0  0  0  0  0  0  0  0  0  0  0  0
   -2.3111    0.5052   -0.0512 P   0  0  0  0  0  0  0  0  0  0  0  0
   -3.0939    0.2741   -1.8377 S   0  0  0  0  0  0  0  0  0  0  0  0
   -3.2804    1.1787    1.0127 O   0  0  0  0  0  0  0  0  0  0  0  0
   -4.0814    2.3373    0.7031 C   0  0  0  0  0  0  0  0  0  0  0  0
   -5.3183    2.3019    1.5783 C   0  0  0  0  0  0  0  0  0  0  0  0
   -1.8824   -0.8157    0.7020 O   0  0  0  0  0  0  0  0  0  0  0  0
   -2.6378   -2.0472    0.5714 C   0  0  0  0  0  0  0  0  0  0  0  0
   -1.6733   -3.2080    0.4424 C   0  0  0  0  0  0  0  0  0  0  0  0
    3.1990   -2.5460   -2.2895 H   0  0  0  0  0  0  0  0  0  0  0  0
    3.5087   -0.8410   -2.6488 H   0  0  0  0  0  0  0  0  0  0  0  0
    4.7759   -2.0423   -2.9251 H   0  0  0  0  0  0  0  0  0  0  0  0
    5.1452   -0.6905   -0.8323 H   0  0  0  0  0  0  0  0  0  0  0  0
    4.9915   -2.4415   -0.4976 H   0  0  0  0  0  0  0  0  0  0  0  0
    0.3475   -0.8568    2.6046 H   0  0  0  0  0  0  0  0  0  0  0  0
    0.9546   -1.9316    1.3136 H   0  0  0  0  0  0  0  0  0  0  0  0
    2.5135   -1.1598    3.8321 H   0  0  0  0  0  0  0  0  0  0  0  0
    1.6978   -2.7119    3.5787 H   0  0  0  0  0  0  0  0  0  0  0  0
    3.0765   -2.2543    2.5634 H   0  0  0  0  0  0  0  0  0  0  0  0
   -0.5470    0.9472   -2.2446 H   0  0  0  0  0  0  0  0  0  0  0  0
    1.0144    1.6831   -1.7214 H   0  0  0  0  0  0  0  0  0  0  0  0
   -3.4764    3.2259    0.8999 H   0  0  0  0  0  0  0  0  0  0  0  0
   -4.3439    2.3083   -0.3600 H   0  0  0  0  0  0  0  0  0  0  0  0
   -5.9163    3.1862    1.3841 H   0  0  0  0  0  0  0  0  0  0  0  0
   -5.9070    1.4157    1.3582 H   0  0  0  0  0  0  0  0  0  0  0  0
   -5.0305    2.2840    2.6255 H   0  0  0  0  0  0  0  0  0  0  0  0
   -3.2591   -2.1359    1.4644 H   0  0  0  0  0  0  0  0  0  0  0  0
   -3.2798   -1.9712   -0.3126 H   0  0  0  0  0  0  0  0  0  0  0  0
   -1.0242   -3.0584   -0.4173 H   0  0  0  0  0  0  0  0  0  0  0  0
   -1.0664   -3.2960    1.3386 H   0  0  0  0  0  0  0  0  0  0  0  0
   -2.2416   -4.1222    0.3038 H   0  0  0  0  0  0  0  0  0  0  0  0
  1  2  1  0  0  0  0
  2  3  1  0  0  0  0
  3  4  2  0  0  0  0
  4  5  2  0  0  0  0
  4  6  2  0  0  0  0
  6  7  1  0  0  0  0
  7  8  1  0  0  0  0
  4  9  1  0  0  0  0
  9 10  1  0  0  0  0
 10 11  1  0  0  0  0
 11 12  1  0  0  0  0
 12 13  2  0  0  0  0
 12 14  2  0  0  0  0
 14 15  1  0  0  0  0
 15 16  1  0  0  0  0
 12 17  2  0  0  0  0
 17 18  1  0  0  0  0
 18 19  1  0  0  0  0
  1 20  1  0  0  0  0
  1 21  1  0  0  0  0
  1 22  1  0  0  0  0
  2 23  1  0  0  0  0
  2 24  1  0  0  0  0
  7 25  1  0  0  0  0
  7 26  1  0  0  0  0
  8 27  1  0  0  0  0
  8 28  1  0  0  0  0
  8 29  1  0  0  0  0
 10 30  1  0  0  0  0
 10 31  1  0  0  0  0
 15 32  1  0  0  0  0
 15 33  1  0  0  0  0
 16 34  1  0  0  0  0
 16 35  1  0  0  0  0
 16 36  1  0  0  0  0
 18 37  1  0  0  0  0
 18 38  1  0  0  0  0
 19 39  1  0  0  0  0
 19 40  1  0  0  0  0
 19 41  1  0  0  0  0
M  END
