 xtb: 6.7.1 (edcfbbe)
          04092505203D

 41 40  0     0  0            999 V2000
    2.9539   -1.8880   -2.4030 C   0  0  0  0  0  0  0  0  0  0  0  0
    2.1779   -0.5964   -2.5392 C   0  0  0  0  0  0  0  0  0  0  0  0
    2.4785    0.3503   -1.4876 O   0  0  0  0  0  0  0  0  0  0  0  0
    2.3782    0.1024    0.0621 P   0  0  0  0  0  0  0  0  0  0  0  0
    2.1958    1.7575    1.0943 S   0  0  0  0  0  0  0  0  0  0  0  0
    3.7615   -0.6483    0.3313 O   0  0  0  0  0  0  0  0  0  0  0  0
    4.3822   -0.7195    1.6234 C   0  0  0  0  0  0  0  0  0  0  0  0
    3.5581   -1.5075    2.6223 C   0  0  0  0  0  0  0  0  0  0  0  0
    0.9030   -1.3955    0.3798 S   0  0  0  0  0  0  0  0  0  0  0  0
   -0.1628   -0.5497    1.5958 C   0  0  0  0  0  0  0  0  0  0  0  0
   -1.9204   -0.7555    1.2589 S   0  0  0  0  0  0  0  0  0  0  0  0
   -2.2107    0.6572   -0.3112 P   0  0  0  0  0  0  0  0  0  0  0  0
   -0.5911    1.2412   -1.2565 S   0  0  0  0  0  0  0  0  0  0  0  0
   -2.9103    1.9397    0.2837 O   0  0  0  0  0  0  0  0  0  0  0  0
   -4.2975    2.0460    0.6881 C   0  0  0  0  0  0  0  0  0  0  0  0
   -4.6392    1.1478    1.8585 C   0  0  0  0  0  0  0  0  0  0  0  0
   -3.3823    0.0228   -1.1736 O   0  0  0  0  0  0  0  0  0  0  0  0
   -3.4246   -1.3393   -1.6442 C   0  0  0  0  0  0  0  0  0  0  0  0
   -2.1512   -1.7618   -2.3456 C   0  0  0  0  0  0  0  0  0  0  0  0
    2.6546   -2.4132   -1.4971 H   0  0  0  0  0  0  0  0  0  0  0  0
    2.7451   -2.5175   -3.2622 H   0  0  0  0  0  0  0  0  0  0  0  0
    4.0197   -1.6809   -2.3543 H   0  0  0  0  0  0  0  0  0  0  0  0
    1.0989   -0.7733   -2.5321 H   0  0  0  0  0  0  0  0  0  0  0  0
    2.4479   -0.0510   -3.4446 H   0  0  0  0  0  0  0  0  0  0  0  0
    5.3407   -1.2005    1.4234 H   0  0  0  0  0  0  0  0  0  0  0  0
    4.5461    0.3012    1.9841 H   0  0  0  0  0  0  0  0  0  0  0  0
    4.1364   -1.6486    3.5297 H   0  0  0  0  0  0  0  0  0  0  0  0
    2.6518   -0.9551    2.8670 H   0  0  0  0  0  0  0  0  0  0  0  0
    3.2870   -2.4766    2.2112 H   0  0  0  0  0  0  0  0  0  0  0  0
    0.1040    0.5105    1.6039 H   0  0  0  0  0  0  0  0  0  0  0  0
   -0.0025   -1.0053    2.5700 H   0  0  0  0  0  0  0  0  0  0  0  0
   -4.3969    3.1008    0.9500 H   0  0  0  0  0  0  0  0  0  0  0  0
   -4.9215    1.8184   -0.1779 H   0  0  0  0  0  0  0  0  0  0  0  0
   -3.9577    1.3273    2.6861 H   0  0  0  0  0  0  0  0  0  0  0  0
   -5.6537    1.3625    2.1800 H   0  0  0  0  0  0  0  0  0  0  0  0
   -4.5726    0.1005    1.5708 H   0  0  0  0  0  0  0  0  0  0  0  0
   -3.6247   -1.9871   -0.7867 H   0  0  0  0  0  0  0  0  0  0  0  0
   -4.2772   -1.3471   -2.3254 H   0  0  0  0  0  0  0  0  0  0  0  0
   -1.3220   -1.7855   -1.6387 H   0  0  0  0  0  0  0  0  0  0  0  0
   -2.2822   -2.7545   -2.7640 H   0  0  0  0  0  0  0  0  0  0  0  0
   -1.9080   -1.0625   -3.1426 H   0  0  0  0  0  0  0  0  0  0  0  0
  1  2  1  0  0  0  0
  2  3  1  0  0  0  0
  3  4  2  0  0  0  0
  4  5  2  0  0  0  0
  4  6  2  0  0  0  0
  6  7  1  0  0  0  0
  7  8  1  0  0  0  0
  4  9  1  0  0  0  0
  9 10  1  0  0  0  0
 10 11  1  0  0  0  0
 11 12  1  0  0  0  0
 12 13  2  0  0  0  0
 12 14  2  0  0  0  0
 14 15  1  0  0  0  0
 15 16  1  0  0  0  0
 12 17  2  0  0  0  0
 17 18  1  0  0  0  0
 18 19  1  0  0  0  0
  1 20  1  0  0  0  0
  1 21  1  0  0  0  0
  1 22  1  0  0  0  0
  2 23  1  0  0  0  0
  2 24  1  0  0  0  0
  7 25  1  0  0  0  0
  7 26  1  0  0  0  0
  8 27  1  0  0  0  0
  8 28  1  0  0  0  0
  8 29  1  0  0  0  0
 10 30  1  0  0  0  0
 10 31  1  0  0  0  0
 15 32  1  0  0  0  0
 15 33  1  0  0  0  0
 16 34  1  0  0  0  0
 16 35  1  0  0  0  0
 16 36  1  0  0  0  0
 18 37  1  0  0  0  0
 18 38  1  0  0  0  0
 19 39  1  0  0  0  0
 19 40  1  0  0  0  0
 19 41  1  0  0  0  0
M  END
