 xtb: 6.7.1 (edcfbbe)
          04092505203D

 41 40  0     0  0            999 V2000
    3.8872   -1.2938   -2.5297 C   0  0  0  0  0  0  0  0  0  0  0  0
    4.1719   -1.6057   -1.0746 C   0  0  0  0  0  0  0  0  0  0  0  0
    2.9720   -1.6444   -0.2824 O   0  0  0  0  0  0  0  0  0  0  0  0
    2.1130   -0.3446    0.0320 P   0  0  0  0  0  0  0  0  0  0  0  0
    3.1526    1.2817    0.3922 S   0  0  0  0  0  0  0  0  0  0  0  0
    1.1876   -0.8676    1.2060 O   0  0  0  0  0  0  0  0  0  0  0  0
    1.4796   -0.6103    2.5920 C   0  0  0  0  0  0  0  0  0  0  0  0
    2.6716   -1.4138    3.0681 C   0  0  0  0  0  0  0  0  0  0  0  0
    0.7079   -0.2622   -1.5409 S   0  0  0  0  0  0  0  0  0  0  0  0
    0.1634    1.4422   -1.2554 C   0  0  0  0  0  0  0  0  0  0  0  0
   -0.6210    1.6909    0.3640 S   0  0  0  0  0  0  0  0  0  0  0  0
   -2.2516    0.3914    0.0588 P   0  0  0  0  0  0  0  0  0  0  0  0
   -2.9829    0.2342   -1.7563 S   0  0  0  0  0  0  0  0  0  0  0  0
   -3.3262    0.8270    1.1502 O   0  0  0  0  0  0  0  0  0  0  0  0
   -4.3516    1.7986    0.8787 C   0  0  0  0  0  0  0  0  0  0  0  0
   -3.7839    3.1925    0.7060 C   0  0  0  0  0  0  0  0  0  0  0  0
   -1.6766   -0.9240    0.7263 O   0  0  0  0  0  0  0  0  0  0  0  0
   -2.2524   -2.2305    0.4990 C   0  0  0  0  0  0  0  0  0  0  0  0
   -1.4017   -3.0145   -0.4807 C   0  0  0  0  0  0  0  0  0  0  0  0
    3.1323   -1.9712   -2.9211 H   0  0  0  0  0  0  0  0  0  0  0  0
    3.5241   -0.2717   -2.6284 H   0  0  0  0  0  0  0  0  0  0  0  0
    4.8012   -1.3997   -3.1052 H   0  0  0  0  0  0  0  0  0  0  0  0
    4.8443   -0.8556   -0.6458 H   0  0  0  0  0  0  0  0  0  0  0  0
    4.5987   -2.6020   -0.9517 H   0  0  0  0  0  0  0  0  0  0  0  0
    1.6587    0.4631    2.7163 H   0  0  0  0  0  0  0  0  0  0  0  0
    0.5614   -0.8907    3.1103 H   0  0  0  0  0  0  0  0  0  0  0  0
    2.8071   -1.2613    4.1342 H   0  0  0  0  0  0  0  0  0  0  0  0
    2.5174   -2.4709    2.8682 H   0  0  0  0  0  0  0  0  0  0  0  0
    3.5691   -1.0840    2.5459 H   0  0  0  0  0  0  0  0  0  0  0  0
   -0.5485    1.6712   -2.0474 H   0  0  0  0  0  0  0  0  0  0  0  0
    1.0211    2.1135   -1.2824 H   0  0  0  0  0  0  0  0  0  0  0  0
   -4.8901    1.4883   -0.0226 H   0  0  0  0  0  0  0  0  0  0  0  0
   -5.0094    1.7346    1.7464 H   0  0  0  0  0  0  0  0  0  0  0  0
   -3.1592    3.4548    1.5562 H   0  0  0  0  0  0  0  0  0  0  0  0
   -3.1799    3.2390   -0.1993 H   0  0  0  0  0  0  0  0  0  0  0  0
   -4.5986    3.9046    0.6224 H   0  0  0  0  0  0  0  0  0  0  0  0
   -2.2709   -2.7039    1.4820 H   0  0  0  0  0  0  0  0  0  0  0  0
   -3.2745   -2.1161    0.1263 H   0  0  0  0  0  0  0  0  0  0  0  0
   -1.4319   -2.5473   -1.4631 H   0  0  0  0  0  0  0  0  0  0  0  0
   -0.3693   -3.0371   -0.1397 H   0  0  0  0  0  0  0  0  0  0  0  0
   -1.7814   -4.0284   -0.5555 H   0  0  0  0  0  0  0  0  0  0  0  0
  1  2  1  0  0  0  0
  2  3  1  0  0  0  0
  3  4  2  0  0  0  0
  4  5  2  0  0  0  0
  4  6  2  0  0  0  0
  6  7  1  0  0  0  0
  7  8  1  0  0  0  0
  4  9  1  0  0  0  0
  9 10  1  0  0  0  0
 10 11  1  0  0  0  0
 11 12  1  0  0  0  0
 12 13  2  0  0  0  0
 12 14  2  0  0  0  0
 14 15  1  0  0  0  0
 15 16  1  0  0  0  0
 12 17  2  0  0  0  0
 17 18  1  0  0  0  0
 18 19  1  0  0  0  0
  1 20  1  0  0  0  0
  1 21  1  0  0  0  0
  1 22  1  0  0  0  0
  2 23  1  0  0  0  0
  2 24  1  0  0  0  0
  7 25  1  0  0  0  0
  7 26  1  0  0  0  0
  8 27  1  0  0  0  0
  8 28  1  0  0  0  0
  8 29  1  0  0  0  0
 10 30  1  0  0  0  0
 10 31  1  0  0  0  0
 15 32  1  0  0  0  0
 15 33  1  0  0  0  0
 16 34  1  0  0  0  0
 16 35  1  0  0  0  0
 16 36  1  0  0  0  0
 18 37  1  0  0  0  0
 18 38  1  0  0  0  0
 19 39  1  0  0  0  0
 19 40  1  0  0  0  0
 19 41  1  0  0  0  0
M  END
