 xtb: 6.7.1 (edcfbbe)
          04092505213D

 41 40  0     0  0            999 V2000
    2.7733    1.3794   -2.6343 C   0  0  0  0  0  0  0  0  0  0  0  0
    2.5717   -0.0813   -2.2875 C   0  0  0  0  0  0  0  0  0  0  0  0
    2.9372   -0.3592   -0.9228 O   0  0  0  0  0  0  0  0  0  0  0  0
    2.0460   -0.0994    0.3648 P   0  0  0  0  0  0  0  0  0  0  0  0
    1.5760    1.7431    0.8204 S   0  0  0  0  0  0  0  0  0  0  0  0
    2.9596   -0.6834    1.5074 O   0  0  0  0  0  0  0  0  0  0  0  0
    3.6253   -1.9725    1.4608 C   0  0  0  0  0  0  0  0  0  0  0  0
    2.9311   -2.9669    2.3709 C   0  0  0  0  0  0  0  0  0  0  0  0
    0.4919   -1.5417    0.0958 S   0  0  0  0  0  0  0  0  0  0  0  0
   -0.4466   -1.2467    1.6129 C   0  0  0  0  0  0  0  0  0  0  0  0
   -1.3799    0.3214    1.6783 S   0  0  0  0  0  0  0  0  0  0  0  0
   -2.0867    0.4700   -0.3153 P   0  0  0  0  0  0  0  0  0  0  0  0
   -0.9082    0.8719   -1.8383 S   0  0  0  0  0  0  0  0  0  0  0  0
   -3.2770    1.5064   -0.1369 O   0  0  0  0  0  0  0  0  0  0  0  0
   -3.1949    2.7657    0.5524 C   0  0  0  0  0  0  0  0  0  0  0  0
   -2.0253    3.6155    0.0985 C   0  0  0  0  0  0  0  0  0  0  0  0
   -2.9110   -0.8691   -0.4754 O   0  0  0  0  0  0  0  0  0  0  0  0
   -2.9066   -1.7339   -1.6303 C   0  0  0  0  0  0  0  0  0  0  0  0
   -2.5028   -3.1357   -1.2185 C   0  0  0  0  0  0  0  0  0  0  0  0
    2.5902    1.5214   -3.6943 H   0  0  0  0  0  0  0  0  0  0  0  0
    2.0736    1.9977   -2.0757 H   0  0  0  0  0  0  0  0  0  0  0  0
    3.7868    1.6887   -2.3935 H   0  0  0  0  0  0  0  0  0  0  0  0
    3.2351   -0.7236   -2.8699 H   0  0  0  0  0  0  0  0  0  0  0  0
    1.5320   -0.3739   -2.4542 H   0  0  0  0  0  0  0  0  0  0  0  0
    3.6525   -2.3249    0.4285 H   0  0  0  0  0  0  0  0  0  0  0  0
    4.6400   -1.7645    1.8035 H   0  0  0  0  0  0  0  0  0  0  0  0
    2.8256   -2.5480    3.3681 H   0  0  0  0  0  0  0  0  0  0  0  0
    1.9484   -3.2243    1.9838 H   0  0  0  0  0  0  0  0  0  0  0  0
    3.5332   -3.8682    2.4274 H   0  0  0  0  0  0  0  0  0  0  0  0
    0.2287   -1.2150    2.4668 H   0  0  0  0  0  0  0  0  0  0  0  0
   -1.1499   -2.0727    1.6961 H   0  0  0  0  0  0  0  0  0  0  0  0
   -4.1478    3.2462    0.3228 H   0  0  0  0  0  0  0  0  0  0  0  0
   -3.1308    2.5640    1.6258 H   0  0  0  0  0  0  0  0  0  0  0  0
   -2.0548    3.7578   -0.9796 H   0  0  0  0  0  0  0  0  0  0  0  0
   -2.0688    4.5822    0.5897 H   0  0  0  0  0  0  0  0  0  0  0  0
   -1.0800    3.1363    0.3582 H   0  0  0  0  0  0  0  0  0  0  0  0
   -3.9257   -1.7125   -2.0213 H   0  0  0  0  0  0  0  0  0  0  0  0
   -2.2212   -1.3224   -2.3794 H   0  0  0  0  0  0  0  0  0  0  0  0
   -2.5938   -3.7933   -2.0768 H   0  0  0  0  0  0  0  0  0  0  0  0
   -1.4716   -3.1462   -0.8713 H   0  0  0  0  0  0  0  0  0  0  0  0
   -3.1530   -3.4908   -0.4242 H   0  0  0  0  0  0  0  0  0  0  0  0
  1  2  1  0  0  0  0
  2  3  1  0  0  0  0
  3  4  2  0  0  0  0
  4  5  2  0  0  0  0
  4  6  2  0  0  0  0
  6  7  1  0  0  0  0
  7  8  1  0  0  0  0
  4  9  1  0  0  0  0
  9 10  1  0  0  0  0
 10 11  1  0  0  0  0
 11 12  1  0  0  0  0
 12 13  2  0  0  0  0
 12 14  2  0  0  0  0
 14 15  1  0  0  0  0
 15 16  1  0  0  0  0
 12 17  2  0  0  0  0
 17 18  1  0  0  0  0
 18 19  1  0  0  0  0
  1 20  1  0  0  0  0
  1 21  1  0  0  0  0
  1 22  1  0  0  0  0
  2 23  1  0  0  0  0
  2 24  1  0  0  0  0
  7 25  1  0  0  0  0
  7 26  1  0  0  0  0
  8 27  1  0  0  0  0
  8 28  1  0  0  0  0
  8 29  1  0  0  0  0
 10 30  1  0  0  0  0
 10 31  1  0  0  0  0
 15 32  1  0  0  0  0
 15 33  1  0  0  0  0
 16 34  1  0  0  0  0
 16 35  1  0  0  0  0
 16 36  1  0  0  0  0
 18 37  1  0  0  0  0
 18 38  1  0  0  0  0
 19 39  1  0  0  0  0
 19 40  1  0  0  0  0
 19 41  1  0  0  0  0
M  END
