 xtb: 6.7.1 (edcfbbe)
          04092505213D

 41 40  0     0  0            999 V2000
    5.3564    1.4181   -1.7683 C   0  0  0  0  0  0  0  0  0  0  0  0
    4.0486    0.6536   -1.8195 C   0  0  0  0  0  0  0  0  0  0  0  0
    3.7759    0.1432   -0.5000 O   0  0  0  0  0  0  0  0  0  0  0  0
    2.3021   -0.0636    0.0275 P   0  0  0  0  0  0  0  0  0  0  0  0
    1.0766    1.4152   -0.4025 S   0  0  0  0  0  0  0  0  0  0  0  0
    2.7184   -0.2959    1.5326 O   0  0  0  0  0  0  0  0  0  0  0  0
    1.8923   -0.8950    2.5476 C   0  0  0  0  0  0  0  0  0  0  0  0
    0.9438    0.1127    3.1666 C   0  0  0  0  0  0  0  0  0  0  0  0
    1.7336   -1.9703   -0.7339 S   0  0  0  0  0  0  0  0  0  0  0  0
   -0.0157   -1.6877   -1.0840 C   0  0  0  0  0  0  0  0  0  0  0  0
   -1.0278   -1.5607    0.4380 S   0  0  0  0  0  0  0  0  0  0  0  0
   -2.2221    0.0978   -0.0584 P   0  0  0  0  0  0  0  0  0  0  0  0
   -2.2010    0.7487   -1.9124 S   0  0  0  0  0  0  0  0  0  0  0  0
   -1.7775    1.0993    1.0832 O   0  0  0  0  0  0  0  0  0  0  0  0
   -2.2666    2.4584    1.1148 C   0  0  0  0  0  0  0  0  0  0  0  0
   -1.3637    3.2569    2.0313 C   0  0  0  0  0  0  0  0  0  0  0  0
   -3.6857   -0.2746    0.4564 O   0  0  0  0  0  0  0  0  0  0  0  0
   -4.6597   -0.9194   -0.3804 C   0  0  0  0  0  0  0  0  0  0  0  0
   -4.2442   -2.3262   -0.7600 C   0  0  0  0  0  0  0  0  0  0  0  0
    6.1505    0.7665   -1.4160 H   0  0  0  0  0  0  0  0  0  0  0  0
    5.5982    1.7790   -2.7627 H   0  0  0  0  0  0  0  0  0  0  0  0
    5.2683    2.2629   -1.0909 H   0  0  0  0  0  0  0  0  0  0  0  0
    4.1128   -0.1989   -2.5006 H   0  0  0  0  0  0  0  0  0  0  0  0
    3.2215    1.3028   -2.1301 H   0  0  0  0  0  0  0  0  0  0  0  0
    1.3413   -1.7389    2.1190 H   0  0  0  0  0  0  0  0  0  0  0  0
    2.6109   -1.2639    3.2820 H   0  0  0  0  0  0  0  0  0  0  0  0
    0.2265    0.4665    2.4285 H   0  0  0  0  0  0  0  0  0  0  0  0
    0.4027   -0.3597    3.9802 H   0  0  0  0  0  0  0  0  0  0  0  0
    1.4995    0.9656    3.5473 H   0  0  0  0  0  0  0  0  0  0  0  0
   -0.3422   -2.5568   -1.6491 H   0  0  0  0  0  0  0  0  0  0  0  0
   -0.1444   -0.7676   -1.6599 H   0  0  0  0  0  0  0  0  0  0  0  0
   -2.2485    2.8565    0.0941 H   0  0  0  0  0  0  0  0  0  0  0  0
   -3.2977    2.4387    1.4768 H   0  0  0  0  0  0  0  0  0  0  0  0
   -0.3467    3.2421    1.6468 H   0  0  0  0  0  0  0  0  0  0  0  0
   -1.7151    4.2826    2.0726 H   0  0  0  0  0  0  0  0  0  0  0  0
   -1.3720    2.8281    3.0291 H   0  0  0  0  0  0  0  0  0  0  0  0
   -5.5678   -0.9145    0.2237 H   0  0  0  0  0  0  0  0  0  0  0  0
   -4.8026   -0.3068   -1.2764 H   0  0  0  0  0  0  0  0  0  0  0  0
   -3.9912   -2.8995    0.1283 H   0  0  0  0  0  0  0  0  0  0  0  0
   -5.0602   -2.8124   -1.2848 H   0  0  0  0  0  0  0  0  0  0  0  0
   -3.3760   -2.2883   -1.4172 H   0  0  0  0  0  0  0  0  0  0  0  0
  1  2  1  0  0  0  0
  2  3  1  0  0  0  0
  3  4  2  0  0  0  0
  4  5  2  0  0  0  0
  4  6  2  0  0  0  0
  6  7  1  0  0  0  0
  7  8  1  0  0  0  0
  4  9  1  0  0  0  0
  9 10  1  0  0  0  0
 10 11  1  0  0  0  0
 11 12  1  0  0  0  0
 12 13  2  0  0  0  0
 12 14  2  0  0  0  0
 14 15  1  0  0  0  0
 15 16  1  0  0  0  0
 12 17  2  0  0  0  0
 17 18  1  0  0  0  0
 18 19  1  0  0  0  0
  1 20  1  0  0  0  0
  1 21  1  0  0  0  0
  1 22  1  0  0  0  0
  2 23  1  0  0  0  0
  2 24  1  0  0  0  0
  7 25  1  0  0  0  0
  7 26  1  0  0  0  0
  8 27  1  0  0  0  0
  8 28  1  0  0  0  0
  8 29  1  0  0  0  0
 10 30  1  0  0  0  0
 10 31  1  0  0  0  0
 15 32  1  0  0  0  0
 15 33  1  0  0  0  0
 16 34  1  0  0  0  0
 16 35  1  0  0  0  0
 16 36  1  0  0  0  0
 18 37  1  0  0  0  0
 18 38  1  0  0  0  0
 19 39  1  0  0  0  0
 19 40  1  0  0  0  0
 19 41  1  0  0  0  0
M  END
