 xtb: 6.7.1 (edcfbbe)
          04092505213D

 41 40  0     0  0            999 V2000
    5.0594   -0.4316   -1.8615 C   0  0  0  0  0  0  0  0  0  0  0  0
    4.8190   -0.2119   -0.3833 C   0  0  0  0  0  0  0  0  0  0  0  0
    3.6680    0.6149   -0.1202 O   0  0  0  0  0  0  0  0  0  0  0  0
    2.1982    0.2912   -0.6163 P   0  0  0  0  0  0  0  0  0  0  0  0
    1.7505    0.7116   -2.4793 S   0  0  0  0  0  0  0  0  0  0  0  0
    1.3060    1.1455    0.3671 O   0  0  0  0  0  0  0  0  0  0  0  0
    1.6399    1.5382    1.7247 C   0  0  0  0  0  0  0  0  0  0  0  0
    1.9552    0.3717    2.6376 C   0  0  0  0  0  0  0  0  0  0  0  0
    1.9118   -1.7637   -0.1260 S   0  0  0  0  0  0  0  0  0  0  0  0
    0.1430   -1.7966   -0.4835 C   0  0  0  0  0  0  0  0  0  0  0  0
   -0.8338   -1.3240    0.9818 S   0  0  0  0  0  0  0  0  0  0  0  0
   -2.1684    0.0626    0.1340 P   0  0  0  0  0  0  0  0  0  0  0  0
   -1.6030    1.1436   -1.3952 S   0  0  0  0  0  0  0  0  0  0  0  0
   -2.6291    0.9715    1.3470 O   0  0  0  0  0  0  0  0  0  0  0  0
   -3.2544    0.4464    2.5474 C   0  0  0  0  0  0  0  0  0  0  0  0
   -2.2497    0.3230    3.6751 C   0  0  0  0  0  0  0  0  0  0  0  0
   -3.3641   -0.9581   -0.1847 O   0  0  0  0  0  0  0  0  0  0  0  0
   -4.3920   -0.6470   -1.1419 C   0  0  0  0  0  0  0  0  0  0  0  0
   -5.3361    0.4187   -0.6229 C   0  0  0  0  0  0  0  0  0  0  0  0
    5.1380    0.5211   -2.3799 H   0  0  0  0  0  0  0  0  0  0  0  0
    5.9776   -0.9937   -1.9978 H   0  0  0  0  0  0  0  0  0  0  0  0
    4.2316   -0.9891   -2.2971 H   0  0  0  0  0  0  0  0  0  0  0  0
    5.6396    0.3408    0.0775 H   0  0  0  0  0  0  0  0  0  0  0  0
    4.6754   -1.1677    0.1285 H   0  0  0  0  0  0  0  0  0  0  0  0
    2.4816    2.2309    1.6686 H   0  0  0  0  0  0  0  0  0  0  0  0
    0.7430    2.0711    2.0474 H   0  0  0  0  0  0  0  0  0  0  0  0
    1.1355   -0.3421    2.6506 H   0  0  0  0  0  0  0  0  0  0  0  0
    2.8591   -0.1364    2.3105 H   0  0  0  0  0  0  0  0  0  0  0  0
    2.1100    0.7535    3.6420 H   0  0  0  0  0  0  0  0  0  0  0  0
   -0.1091   -2.8175   -0.7564 H   0  0  0  0  0  0  0  0  0  0  0  0
   -0.0745   -1.0967   -1.2966 H   0  0  0  0  0  0  0  0  0  0  0  0
   -4.0280    1.1781    2.7870 H   0  0  0  0  0  0  0  0  0  0  0  0
   -3.7124   -0.5183    2.3169 H   0  0  0  0  0  0  0  0  0  0  0  0
   -1.5078   -0.4377    3.4448 H   0  0  0  0  0  0  0  0  0  0  0  0
   -1.7477    1.2736    3.8325 H   0  0  0  0  0  0  0  0  0  0  0  0
   -2.7741    0.0420    4.5830 H   0  0  0  0  0  0  0  0  0  0  0  0
   -3.9131   -0.3164   -2.0693 H   0  0  0  0  0  0  0  0  0  0  0  0
   -4.9001   -1.5986   -1.3040 H   0  0  0  0  0  0  0  0  0  0  0  0
   -4.7881    1.3473   -0.4644 H   0  0  0  0  0  0  0  0  0  0  0  0
   -6.1179    0.5933   -1.3555 H   0  0  0  0  0  0  0  0  0  0  0  0
   -5.7859    0.1049    0.3155 H   0  0  0  0  0  0  0  0  0  0  0  0
  1  2  1  0  0  0  0
  2  3  1  0  0  0  0
  3  4  2  0  0  0  0
  4  5  2  0  0  0  0
  4  6  2  0  0  0  0
  6  7  1  0  0  0  0
  7  8  1  0  0  0  0
  4  9  1  0  0  0  0
  9 10  1  0  0  0  0
 10 11  1  0  0  0  0
 11 12  1  0  0  0  0
 12 13  2  0  0  0  0
 12 14  2  0  0  0  0
 14 15  1  0  0  0  0
 15 16  1  0  0  0  0
 12 17  1  0  0  0  0
 17 18  1  0  0  0  0
 18 19  1  0  0  0  0
  1 20  1  0  0  0  0
  1 21  1  0  0  0  0
  1 22  1  0  0  0  0
  2 23  1  0  0  0  0
  2 24  1  0  0  0  0
  7 25  1  0  0  0  0
  7 26  1  0  0  0  0
  8 27  1  0  0  0  0
  8 28  1  0  0  0  0
  8 29  1  0  0  0  0
 10 30  1  0  0  0  0
 10 31  1  0  0  0  0
 15 32  1  0  0  0  0
 15 33  1  0  0  0  0
 16 34  1  0  0  0  0
 16 35  1  0  0  0  0
 16 36  1  0  0  0  0
 18 37  1  0  0  0  0
 18 38  1  0  0  0  0
 19 39  1  0  0  0  0
 19 40  1  0  0  0  0
 19 41  1  0  0  0  0
M  END
