 xtb: 6.7.1 (edcfbbe)
          04092507313D

 38 37  0     0  0            999 V2000
    3.5091   -3.0401    0.3141 C   0  0  0  0  0  0  0  0  0  0  0  0
    3.0020   -1.6922    0.8006 C   0  0  0  0  0  0  0  0  0  0  0  0
    2.7034   -0.8200   -0.3063 O   0  0  0  0  0  0  0  0  0  0  0  0
    1.5558   -0.9610   -0.9332 C   0  0  0  0  0  0  0  0  0  0  0  0
    0.6948   -1.7657   -0.6390 O   0  0  0  0  0  0  0  0  0  0  0  0
    1.4117    0.0250   -2.0749 C   0  0  0  0  0  0  0  0  0  0  0  0
    0.2210    0.9550   -1.8273 C   0  0  0  0  0  0  0  0  0  0  0  0
    0.0823    1.6061   -2.6955 H   0  0  0  0  0  0  0  0  0  0  0  0
    0.4037    1.8252   -0.5975 C   0  0  0  0  0  0  0  0  0  0  0  0
   -0.4864    1.9945    0.2146 O   0  0  0  0  0  0  0  0  0  0  0  0
    1.5917    2.3573   -0.5437 O   0  0  0  0  0  0  0  0  0  0  0  0
    1.9545    3.1447    0.6119 C   0  0  0  0  0  0  0  0  0  0  0  0
    2.6145    2.2610    1.6568 C   0  0  0  0  0  0  0  0  0  0  0  0
   -1.3614    0.0626   -1.6642 S   0  0  0  0  0  0  0  0  0  0  0  0
   -1.6465   -0.2393    0.4332 P   0  0  0  0  0  0  0  0  0  0  0  0
   -0.3136   -0.3810    1.8649 S   0  0  0  0  0  0  0  0  0  0  0  0
   -2.7982    0.7574    0.8732 O   0  0  0  0  0  0  0  0  0  0  0  0
   -4.0167    0.9401    0.1331 C   0  0  0  0  0  0  0  0  0  0  0  0
   -2.5367   -1.5792    0.3332 O   0  0  0  0  0  0  0  0  0  0  0  0
   -1.9946   -2.8828    0.1308 C   0  0  0  0  0  0  0  0  0  0  0  0
    3.7882   -3.6444    1.1707 H   0  0  0  0  0  0  0  0  0  0  0  0
    2.7292   -3.5562   -0.2411 H   0  0  0  0  0  0  0  0  0  0  0  0
    4.3747   -2.9045   -0.3286 H   0  0  0  0  0  0  0  0  0  0  0  0
    3.7667   -1.1586    1.3647 H   0  0  0  0  0  0  0  0  0  0  0  0
    2.1007   -1.8026    1.4109 H   0  0  0  0  0  0  0  0  0  0  0  0
    1.2264   -0.5369   -2.9910 H   0  0  0  0  0  0  0  0  0  0  0  0
    2.3242    0.6131   -2.1619 H   0  0  0  0  0  0  0  0  0  0  0  0
    2.6468    3.8915    0.2231 H   0  0  0  0  0  0  0  0  0  0  0  0
    1.0552    3.6200    1.0117 H   0  0  0  0  0  0  0  0  0  0  0  0
    1.9115    1.5092    2.0142 H   0  0  0  0  0  0  0  0  0  0  0  0
    3.4771    1.7583    1.2286 H   0  0  0  0  0  0  0  0  0  0  0  0
    2.9307    2.8709    2.4961 H   0  0  0  0  0  0  0  0  0  0  0  0
   -4.5814    0.0093    0.1117 H   0  0  0  0  0  0  0  0  0  0  0  0
   -3.7935    1.2661   -0.8830 H   0  0  0  0  0  0  0  0  0  0  0  0
   -4.5593    1.7114    0.6735 H   0  0  0  0  0  0  0  0  0  0  0  0
   -1.6433   -2.9871   -0.8949 H   0  0  0  0  0  0  0  0  0  0  0  0
   -2.8092   -3.5726    0.3370 H   0  0  0  0  0  0  0  0  0  0  0  0
   -1.1619   -3.0529    0.8142 H   0  0  0  0  0  0  0  0  0  0  0  0
  1  2  1  0  0  0  0
  2  3  1  0  0  0  0
  3  4  4  0  0  0  0
  4  5  2  0  0  0  0
  4  6  1  0  0  0  0
  6  7  1  0  0  0  0
  7  8  1  0  0  0  0
  7  9  1  0  0  0  0
  9 10  2  0  0  0  0
  9 11  4  0  0  0  0
 11 12  1  0  0  0  0
 12 13  1  0  0  0  0
  7 14  1  0  0  0  0
 14 15  1  0  0  0  0
 15 16  2  0  0  0  0
 15 17  2  0  0  0  0
 17 18  1  0  0  0  0
 15 19  1  0  0  0  0
 19 20  1  0  0  0  0
  1 21  1  0  0  0  0
  1 22  1  0  0  0  0
  1 23  1  0  0  0  0
  2 24  1  0  0  0  0
  2 25  1  0  0  0  0
  6 26  1  0  0  0  0
  6 27  1  0  0  0  0
 12 28  1  0  0  0  0
 12 29  1  0  0  0  0
 13 30  1  0  0  0  0
 13 31  1  0  0  0  0
 13 32  1  0  0  0  0
 18 33  1  0  0  0  0
 18 34  1  0  0  0  0
 18 35  1  0  0  0  0
 20 36  1  0  0  0  0
 20 37  1  0  0  0  0
 20 38  1  0  0  0  0
M  END
