 xtb: 6.7.1 (edcfbbe)
          04092505213D

 41 40  0     0  0            999 V2000
    3.5051   -0.6780   -2.9986 C   0  0  0  0  0  0  0  0  0  0  0  0
    4.2484   -0.7229   -1.6808 C   0  0  0  0  0  0  0  0  0  0  0  0
    3.6463    0.1067   -0.6671 O   0  0  0  0  0  0  0  0  0  0  0  0
    2.1129    0.0846   -0.2585 P   0  0  0  0  0  0  0  0  0  0  0  0
    0.8866    1.0730   -1.4207 S   0  0  0  0  0  0  0  0  0  0  0  0
    2.1226    0.7505    1.1669 O   0  0  0  0  0  0  0  0  0  0  0  0
    2.9662    0.3258    2.2654 C   0  0  0  0  0  0  0  0  0  0  0  0
    4.1890    1.2136    2.3690 C   0  0  0  0  0  0  0  0  0  0  0  0
    1.7873   -2.0024    0.0447 S   0  0  0  0  0  0  0  0  0  0  0  0
    0.1116   -1.9764    0.7220 C   0  0  0  0  0  0  0  0  0  0  0  0
   -1.1720   -1.5678   -0.5056 S   0  0  0  0  0  0  0  0  0  0  0  0
   -1.9310    0.1821    0.3822 P   0  0  0  0  0  0  0  0  0  0  0  0
   -1.0228    0.9461    1.9343 S   0  0  0  0  0  0  0  0  0  0  0  0
   -3.3778   -0.4183    0.7258 O   0  0  0  0  0  0  0  0  0  0  0  0
   -4.3344    0.3919    1.4398 C   0  0  0  0  0  0  0  0  0  0  0  0
   -5.6728   -0.3149    1.3827 C   0  0  0  0  0  0  0  0  0  0  0  0
   -2.1720    1.2699   -0.7420 O   0  0  0  0  0  0  0  0  0  0  0  0
   -2.6808    0.9368   -2.0586 C   0  0  0  0  0  0  0  0  0  0  0  0
   -3.9291    1.7490   -2.3353 C   0  0  0  0  0  0  0  0  0  0  0  0
    2.5057   -1.0952   -2.8806 H   0  0  0  0  0  0  0  0  0  0  0  0
    3.4080    0.3483   -3.3451 H   0  0  0  0  0  0  0  0  0  0  0  0
    4.0466   -1.2593   -3.7378 H   0  0  0  0  0  0  0  0  0  0  0  0
    5.2569   -0.3170   -1.7779 H   0  0  0  0  0  0  0  0  0  0  0  0
    4.2925   -1.7455   -1.2964 H   0  0  0  0  0  0  0  0  0  0  0  0
    2.3279    0.4193    3.1470 H   0  0  0  0  0  0  0  0  0  0  0  0
    3.2472   -0.7207    2.1164 H   0  0  0  0  0  0  0  0  0  0  0  0
    3.8851    2.2504    2.4846 H   0  0  0  0  0  0  0  0  0  0  0  0
    4.7740    0.9120    3.2321 H   0  0  0  0  0  0  0  0  0  0  0  0
    4.7955    1.1249    1.4715 H   0  0  0  0  0  0  0  0  0  0  0  0
    0.0518   -1.2514    1.5389 H   0  0  0  0  0  0  0  0  0  0  0  0
   -0.0750   -2.9880    1.0729 H   0  0  0  0  0  0  0  0  0  0  0  0
   -3.9798    0.5065    2.4687 H   0  0  0  0  0  0  0  0  0  0  0  0
   -4.3775    1.3835    0.9762 H   0  0  0  0  0  0  0  0  0  0  0  0
   -6.4076    0.2693    1.9270 H   0  0  0  0  0  0  0  0  0  0  0  0
   -5.9937   -0.4289    0.3511 H   0  0  0  0  0  0  0  0  0  0  0  0
   -5.5878   -1.2994    1.8329 H   0  0  0  0  0  0  0  0  0  0  0  0
   -1.8737    1.1819   -2.7530 H   0  0  0  0  0  0  0  0  0  0  0  0
   -2.8846   -0.1375   -2.1045 H   0  0  0  0  0  0  0  0  0  0  0  0
   -3.7148    2.8073   -2.2143 H   0  0  0  0  0  0  0  0  0  0  0  0
   -4.2512    1.5623   -3.3546 H   0  0  0  0  0  0  0  0  0  0  0  0
   -4.7265    1.4688   -1.6514 H   0  0  0  0  0  0  0  0  0  0  0  0
  1  2  1  0  0  0  0
  2  3  1  0  0  0  0
  3  4  2  0  0  0  0
  4  5  2  0  0  0  0
  4  6  2  0  0  0  0
  6  7  1  0  0  0  0
  7  8  1  0  0  0  0
  4  9  1  0  0  0  0
  9 10  1  0  0  0  0
 10 11  1  0  0  0  0
 11 12  1  0  0  0  0
 12 13  2  0  0  0  0
 12 14  1  0  0  0  0
 14 15  1  0  0  0  0
 15 16  1  0  0  0  0
 12 17  2  0  0  0  0
 17 18  1  0  0  0  0
 18 19  1  0  0  0  0
  1 20  1  0  0  0  0
  1 21  1  0  0  0  0
  1 22  1  0  0  0  0
  2 23  1  0  0  0  0
  2 24  1  0  0  0  0
  7 25  1  0  0  0  0
  7 26  1  0  0  0  0
  8 27  1  0  0  0  0
  8 28  1  0  0  0  0
  8 29  1  0  0  0  0
 10 30  1  0  0  0  0
 10 31  1  0  0  0  0
 15 32  1  0  0  0  0
 15 33  1  0  0  0  0
 16 34  1  0  0  0  0
 16 35  1  0  0  0  0
 16 36  1  0  0  0  0
 18 37  1  0  0  0  0
 18 38  1  0  0  0  0
 19 39  1  0  0  0  0
 19 40  1  0  0  0  0
 19 41  1  0  0  0  0
M  END
