 xtb: 6.7.1 (edcfbbe)
          04092505213D

 41 40  0     0  0            999 V2000
    4.2617    0.2968   -1.5580 C   0  0  0  0  0  0  0  0  0  0  0  0
    2.8639    0.8718   -1.6177 C   0  0  0  0  0  0  0  0  0  0  0  0
    2.2941    1.1137   -0.3084 O   0  0  0  0  0  0  0  0  0  0  0  0
    2.1714    0.0853    0.8806 P   0  0  0  0  0  0  0  0  0  0  0  0
    0.9109    0.7244    2.2360 S   0  0  0  0  0  0  0  0  0  0  0  0
    3.6696   -0.0659    1.3836 O   0  0  0  0  0  0  0  0  0  0  0  0
    4.0028   -0.5699    2.6882 C   0  0  0  0  0  0  0  0  0  0  0  0
    3.6339   -2.0300    2.8544 C   0  0  0  0  0  0  0  0  0  0  0  0
    1.7003   -1.8042    0.0028 S   0  0  0  0  0  0  0  0  0  0  0  0
   -0.0737   -1.5503   -0.0941 C   0  0  0  0  0  0  0  0  0  0  0  0
   -0.5036   -0.4989   -1.5412 S   0  0  0  0  0  0  0  0  0  0  0  0
   -2.3656    0.2044   -0.8811 P   0  0  0  0  0  0  0  0  0  0  0  0
   -3.4880    1.1533   -2.1763 S   0  0  0  0  0  0  0  0  0  0  0  0
   -2.1009    1.0298    0.4633 O   0  0  0  0  0  0  0  0  0  0  0  0
   -1.9933    2.4606    0.4649 C   0  0  0  0  0  0  0  0  0  0  0  0
   -0.8026    2.9479   -0.3348 C   0  0  0  0  0  0  0  0  0  0  0  0
   -2.9121   -1.1636   -0.2893 O   0  0  0  0  0  0  0  0  0  0  0  0
   -4.2528   -1.2683    0.2466 C   0  0  0  0  0  0  0  0  0  0  0  0
   -5.1995   -1.8294   -0.7954 C   0  0  0  0  0  0  0  0  0  0  0  0
    4.2423   -0.7030   -1.1293 H   0  0  0  0  0  0  0  0  0  0  0  0
    4.6613    0.2409   -2.5659 H   0  0  0  0  0  0  0  0  0  0  0  0
    4.9039    0.9291   -0.9505 H   0  0  0  0  0  0  0  0  0  0  0  0
    2.1857    0.2088   -2.1634 H   0  0  0  0  0  0  0  0  0  0  0  0
    2.8536    1.8612   -2.0775 H   0  0  0  0  0  0  0  0  0  0  0  0
    5.0807   -0.4169    2.7572 H   0  0  0  0  0  0  0  0  0  0  0  0
    3.4924    0.0434    3.4375 H   0  0  0  0  0  0  0  0  0  0  0  0
    4.0281   -2.3930    3.7981 H   0  0  0  0  0  0  0  0  0  0  0  0
    2.5511   -2.1438    2.8586 H   0  0  0  0  0  0  0  0  0  0  0  0
    4.0454   -2.6203    2.0399 H   0  0  0  0  0  0  0  0  0  0  0  0
   -0.4183   -1.0492    0.8129 H   0  0  0  0  0  0  0  0  0  0  0  0
   -0.5367   -2.5245   -0.2207 H   0  0  0  0  0  0  0  0  0  0  0  0
   -2.9202    2.8747    0.0556 H   0  0  0  0  0  0  0  0  0  0  0  0
   -1.8980    2.7151    1.5216 H   0  0  0  0  0  0  0  0  0  0  0  0
   -0.7505    4.0303   -0.2789 H   0  0  0  0  0  0  0  0  0  0  0  0
    0.1199    2.5261    0.0585 H   0  0  0  0  0  0  0  0  0  0  0  0
   -0.9114    2.6504   -1.3783 H   0  0  0  0  0  0  0  0  0  0  0  0
   -4.1550   -1.9393    1.1018 H   0  0  0  0  0  0  0  0  0  0  0  0
   -4.5813   -0.2840    0.5910 H   0  0  0  0  0  0  0  0  0  0  0  0
   -4.8342   -2.7876   -1.1542 H   0  0  0  0  0  0  0  0  0  0  0  0
   -6.1815   -1.9605   -0.3524 H   0  0  0  0  0  0  0  0  0  0  0  0
   -5.2783   -1.1463   -1.6385 H   0  0  0  0  0  0  0  0  0  0  0  0
  1  2  1  0  0  0  0
  2  3  1  0  0  0  0
  3  4  2  0  0  0  0
  4  5  2  0  0  0  0
  4  6  2  0  0  0  0
  6  7  1  0  0  0  0
  7  8  1  0  0  0  0
  4  9  1  0  0  0  0
  9 10  1  0  0  0  0
 10 11  1  0  0  0  0
 11 12  1  0  0  0  0
 12 13  2  0  0  0  0
 12 14  1  0  0  0  0
 14 15  1  0  0  0  0
 15 16  1  0  0  0  0
 12 17  2  0  0  0  0
 17 18  1  0  0  0  0
 18 19  1  0  0  0  0
  1 20  1  0  0  0  0
  1 21  1  0  0  0  0
  1 22  1  0  0  0  0
  2 23  1  0  0  0  0
  2 24  1  0  0  0  0
  7 25  1  0  0  0  0
  7 26  1  0  0  0  0
  8 27  1  0  0  0  0
  8 28  1  0  0  0  0
  8 29  1  0  0  0  0
 10 30  1  0  0  0  0
 10 31  1  0  0  0  0
 15 32  1  0  0  0  0
 15 33  1  0  0  0  0
 16 34  1  0  0  0  0
 16 35  1  0  0  0  0
 16 36  1  0  0  0  0
 18 37  1  0  0  0  0
 18 38  1  0  0  0  0
 19 39  1  0  0  0  0
 19 40  1  0  0  0  0
 19 41  1  0  0  0  0
M  END
