 xtb: 6.7.1 (edcfbbe)
          04092505213D

 41 40  0     0  0            999 V2000
    5.5033    0.5139   -1.9097 C   0  0  0  0  0  0  0  0  0  0  0  0
    4.3557    1.0694   -1.0908 C   0  0  0  0  0  0  0  0  0  0  0  0
    3.2938    0.0928   -1.0906 O   0  0  0  0  0  0  0  0  0  0  0  0
    2.2112    0.0169    0.0695 P   0  0  0  0  0  0  0  0  0  0  0  0
    2.9528    0.1308    1.8835 S   0  0  0  0  0  0  0  0  0  0  0  0
    1.4395   -1.3093   -0.2885 O   0  0  0  0  0  0  0  0  0  0  0  0
    1.8408   -2.6143    0.1910 C   0  0  0  0  0  0  0  0  0  0  0  0
    0.6388   -3.2981    0.8091 C   0  0  0  0  0  0  0  0  0  0  0  0
    0.8054    1.4879   -0.4585 S   0  0  0  0  0  0  0  0  0  0  0  0
   -0.0517    1.5422    1.1389 C   0  0  0  0  0  0  0  0  0  0  0  0
   -1.0928    0.0903    1.4693 S   0  0  0  0  0  0  0  0  0  0  0  0
   -2.1791   -0.0217   -0.3814 P   0  0  0  0  0  0  0  0  0  0  0  0
   -1.4200   -1.0697   -1.8465 S   0  0  0  0  0  0  0  0  0  0  0  0
   -2.4646    1.4772   -0.7701 O   0  0  0  0  0  0  0  0  0  0  0  0
   -3.3254    2.3471    0.0164 C   0  0  0  0  0  0  0  0  0  0  0  0
   -3.0182    3.7763   -0.3797 C   0  0  0  0  0  0  0  0  0  0  0  0
   -3.6164   -0.5233    0.0874 O   0  0  0  0  0  0  0  0  0  0  0  0
   -3.9408   -1.9159    0.2292 C   0  0  0  0  0  0  0  0  0  0  0  0
   -3.3835   -2.4883    1.5164 C   0  0  0  0  0  0  0  0  0  0  0  0
    5.8807   -0.3979   -1.4554 H   0  0  0  0  0  0  0  0  0  0  0  0
    5.1641    0.2905   -2.9172 H   0  0  0  0  0  0  0  0  0  0  0  0
    6.2992    1.2502   -1.9516 H   0  0  0  0  0  0  0  0  0  0  0  0
    3.9640    1.9923   -1.5257 H   0  0  0  0  0  0  0  0  0  0  0  0
    4.6565    1.2578   -0.0545 H   0  0  0  0  0  0  0  0  0  0  0  0
    2.2093   -3.1599   -0.6793 H   0  0  0  0  0  0  0  0  0  0  0  0
    2.6478   -2.4922    0.9212 H   0  0  0  0  0  0  0  0  0  0  0  0
   -0.1751   -3.3202    0.0880 H   0  0  0  0  0  0  0  0  0  0  0  0
    0.9054   -4.3130    1.0843 H   0  0  0  0  0  0  0  0  0  0  0  0
    0.3159   -2.7574    1.6964 H   0  0  0  0  0  0  0  0  0  0  0  0
   -0.6547    2.4458    1.1379 H   0  0  0  0  0  0  0  0  0  0  0  0
    0.6868    1.5659    1.9428 H   0  0  0  0  0  0  0  0  0  0  0  0
   -4.3587    2.0814   -0.2127 H   0  0  0  0  0  0  0  0  0  0  0  0
   -3.1407    2.1650    1.0786 H   0  0  0  0  0  0  0  0  0  0  0  0
   -3.6451    4.4482    0.1976 H   0  0  0  0  0  0  0  0  0  0  0  0
   -1.9728    4.0106   -0.1949 H   0  0  0  0  0  0  0  0  0  0  0  0
   -3.2173    3.9178   -1.4380 H   0  0  0  0  0  0  0  0  0  0  0  0
   -5.0315   -1.9369    0.2183 H   0  0  0  0  0  0  0  0  0  0  0  0
   -3.5510   -2.4534   -0.6418 H   0  0  0  0  0  0  0  0  0  0  0  0
   -2.2953   -2.4494    1.5002 H   0  0  0  0  0  0  0  0  0  0  0  0
   -3.7384   -1.9163    2.3692 H   0  0  0  0  0  0  0  0  0  0  0  0
   -3.6979   -3.5219    1.6173 H   0  0  0  0  0  0  0  0  0  0  0  0
  1  2  1  0  0  0  0
  2  3  1  0  0  0  0
  3  4  2  0  0  0  0
  4  5  2  0  0  0  0
  4  6  2  0  0  0  0
  6  7  1  0  0  0  0
  7  8  1  0  0  0  0
  4  9  1  0  0  0  0
  9 10  1  0  0  0  0
 10 11  1  0  0  0  0
 11 12  1  0  0  0  0
 12 13  2  0  0  0  0
 12 14  2  0  0  0  0
 14 15  1  0  0  0  0
 15 16  1  0  0  0  0
 12 17  2  0  0  0  0
 17 18  1  0  0  0  0
 18 19  1  0  0  0  0
  1 20  1  0  0  0  0
  1 21  1  0  0  0  0
  1 22  1  0  0  0  0
  2 23  1  0  0  0  0
  2 24  1  0  0  0  0
  7 25  1  0  0  0  0
  7 26  1  0  0  0  0
  8 27  1  0  0  0  0
  8 28  1  0  0  0  0
  8 29  1  0  0  0  0
 10 30  1  0  0  0  0
 10 31  1  0  0  0  0
 15 32  1  0  0  0  0
 15 33  1  0  0  0  0
 16 34  1  0  0  0  0
 16 35  1  0  0  0  0
 16 36  1  0  0  0  0
 18 37  1  0  0  0  0
 18 38  1  0  0  0  0
 19 39  1  0  0  0  0
 19 40  1  0  0  0  0
 19 41  1  0  0  0  0
M  END
