 xtb: 6.7.1 (edcfbbe)
          04092505213D

 41 40  0     0  0            999 V2000
    3.6544    2.4790    1.7672 C   0  0  0  0  0  0  0  0  0  0  0  0
    2.2243    1.9818    1.7817 C   0  0  0  0  0  0  0  0  0  0  0  0
    1.9115    1.2759    0.5673 O   0  0  0  0  0  0  0  0  0  0  0  0
    2.4672   -0.1770    0.2666 P   0  0  0  0  0  0  0  0  0  0  0  0
    2.8354   -1.2436    1.8768 S   0  0  0  0  0  0  0  0  0  0  0  0
    3.6887    0.1647   -0.6878 O   0  0  0  0  0  0  0  0  0  0  0  0
    4.2828   -0.7299   -1.6462 C   0  0  0  0  0  0  0  0  0  0  0  0
    4.6610   -2.0691   -1.0479 C   0  0  0  0  0  0  0  0  0  0  0  0
    0.9966   -0.9396   -1.0493 S   0  0  0  0  0  0  0  0  0  0  0  0
   -0.1081   -1.5629    0.2432 C   0  0  0  0  0  0  0  0  0  0  0  0
   -0.9621   -0.2405    1.1519 S   0  0  0  0  0  0  0  0  0  0  0  0
   -2.6120    0.0251   -0.1502 P   0  0  0  0  0  0  0  0  0  0  0  0
   -2.6033   -0.9117   -1.8762 S   0  0  0  0  0  0  0  0  0  0  0  0
   -2.8400    1.5971   -0.2412 O   0  0  0  0  0  0  0  0  0  0  0  0
   -2.2793    2.4042   -1.2892 C   0  0  0  0  0  0  0  0  0  0  0  0
   -0.7958    2.6392   -1.0908 C   0  0  0  0  0  0  0  0  0  0  0  0
   -3.7484   -0.4109    0.8626 O   0  0  0  0  0  0  0  0  0  0  0  0
   -5.0755   -0.7721    0.4260 C   0  0  0  0  0  0  0  0  0  0  0  0
   -5.8381    0.4147   -0.1248 C   0  0  0  0  0  0  0  0  0  0  0  0
    3.8490    3.0549    2.6664 H   0  0  0  0  0  0  0  0  0  0  0  0
    4.3341    1.6280    1.7341 H   0  0  0  0  0  0  0  0  0  0  0  0
    3.8271    3.0985    0.8915 H   0  0  0  0  0  0  0  0  0  0  0  0
    1.5062    2.8020    1.8085 H   0  0  0  0  0  0  0  0  0  0  0  0
    2.0516    1.3131    2.6315 H   0  0  0  0  0  0  0  0  0  0  0  0
    3.5770   -0.8603   -2.4714 H   0  0  0  0  0  0  0  0  0  0  0  0
    5.1626   -0.1853   -1.9936 H   0  0  0  0  0  0  0  0  0  0  0  0
    3.7670   -2.6052   -0.7315 H   0  0  0  0  0  0  0  0  0  0  0  0
    5.1828   -2.6621   -1.7921 H   0  0  0  0  0  0  0  0  0  0  0  0
    5.3041   -1.9311   -0.1819 H   0  0  0  0  0  0  0  0  0  0  0  0
    0.4801   -2.1146    0.9769 H   0  0  0  0  0  0  0  0  0  0  0  0
   -0.8357   -2.2026   -0.2524 H   0  0  0  0  0  0  0  0  0  0  0  0
   -2.4668    1.9099   -2.2484 H   0  0  0  0  0  0  0  0  0  0  0  0
   -2.8425    3.3370   -1.2349 H   0  0  0  0  0  0  0  0  0  0  0  0
   -0.2444    1.7074   -1.2098 H   0  0  0  0  0  0  0  0  0  0  0  0
   -0.4400    3.3498   -1.8298 H   0  0  0  0  0  0  0  0  0  0  0  0
   -0.6070    3.0298   -0.0940 H   0  0  0  0  0  0  0  0  0  0  0  0
   -4.9874   -1.5590   -0.3299 H   0  0  0  0  0  0  0  0  0  0  0  0
   -5.5437   -1.1721    1.3263 H   0  0  0  0  0  0  0  0  0  0  0  0
   -5.3798    0.7529   -1.0530 H   0  0  0  0  0  0  0  0  0  0  0  0
   -6.8637    0.1205   -0.3248 H   0  0  0  0  0  0  0  0  0  0  0  0
   -5.8280    1.2321    0.5913 H   0  0  0  0  0  0  0  0  0  0  0  0
  1  2  1  0  0  0  0
  2  3  1  0  0  0  0
  3  4  2  0  0  0  0
  4  5  2  0  0  0  0
  4  6  2  0  0  0  0
  6  7  1  0  0  0  0
  7  8  1  0  0  0  0
  4  9  1  0  0  0  0
  9 10  1  0  0  0  0
 10 11  1  0  0  0  0
 11 12  1  0  0  0  0
 12 13  2  0  0  0  0
 12 14  2  0  0  0  0
 14 15  1  0  0  0  0
 15 16  1  0  0  0  0
 12 17  2  0  0  0  0
 17 18  1  0  0  0  0
 18 19  1  0  0  0  0
  1 20  1  0  0  0  0
  1 21  1  0  0  0  0
  1 22  1  0  0  0  0
  2 23  1  0  0  0  0
  2 24  1  0  0  0  0
  7 25  1  0  0  0  0
  7 26  1  0  0  0  0
  8 27  1  0  0  0  0
  8 28  1  0  0  0  0
  8 29  1  0  0  0  0
 10 30  1  0  0  0  0
 10 31  1  0  0  0  0
 15 32  1  0  0  0  0
 15 33  1  0  0  0  0
 16 34  1  0  0  0  0
 16 35  1  0  0  0  0
 16 36  1  0  0  0  0
 18 37  1  0  0  0  0
 18 38  1  0  0  0  0
 19 39  1  0  0  0  0
 19 40  1  0  0  0  0
 19 41  1  0  0  0  0
M  END
