 xtb: 6.7.1 (edcfbbe)
          04092507313D

 38 37  0     0  0            999 V2000
    3.6234   -4.0985   -0.7645 C   0  0  0  0  0  0  0  0  0  0  0  0
    2.1540   -3.7294   -0.8914 C   0  0  0  0  0  0  0  0  0  0  0  0
    1.9001   -2.4199   -0.3458 O   0  0  0  0  0  0  0  0  0  0  0  0
    2.1229   -1.3706   -1.1104 C   0  0  0  0  0  0  0  0  0  0  0  0
    2.4933   -1.4188   -2.2617 O   0  0  0  0  0  0  0  0  0  0  0  0
    1.8150   -0.0767   -0.3783 C   0  0  0  0  0  0  0  0  0  0  0  0
    0.7034    0.6580   -1.1247 C   0  0  0  0  0  0  0  0  0  0  0  0
    1.0151    0.8275   -2.1607 H   0  0  0  0  0  0  0  0  0  0  0  0
    0.3496    1.9915   -0.4912 C   0  0  0  0  0  0  0  0  0  0  0  0
   -0.7949    2.3028   -0.2287 O   0  0  0  0  0  0  0  0  0  0  0  0
    1.4036    2.7344   -0.3047 O   0  0  0  0  0  0  0  0  0  0  0  0
    1.2457    4.0090    0.3582 C   0  0  0  0  0  0  0  0  0  0  0  0
    1.4814    3.8532    1.8511 C   0  0  0  0  0  0  0  0  0  0  0  0
   -0.8157   -0.3383   -1.2556 S   0  0  0  0  0  0  0  0  0  0  0  0
   -1.7077   -0.0046    0.6553 P   0  0  0  0  0  0  0  0  0  0  0  0
   -0.5951    0.4565    2.1979 S   0  0  0  0  0  0  0  0  0  0  0  0
   -2.9957    0.8951    0.5098 O   0  0  0  0  0  0  0  0  0  0  0  0
   -3.9820    0.6891   -0.5187 C   0  0  0  0  0  0  0  0  0  0  0  0
   -2.4209   -1.4356    0.8439 O   0  0  0  0  0  0  0  0  0  0  0  0
   -1.6546   -2.6123    1.1100 C   0  0  0  0  0  0  0  0  0  0  0  0
    4.2311   -3.4273   -1.3670 H   0  0  0  0  0  0  0  0  0  0  0  0
    3.9385   -4.0279    0.2729 H   0  0  0  0  0  0  0  0  0  0  0  0
    3.7688   -5.1149   -1.1149 H   0  0  0  0  0  0  0  0  0  0  0  0
    1.5254   -4.3965   -0.3015 H   0  0  0  0  0  0  0  0  0  0  0  0
    1.8419   -3.7345   -1.9397 H   0  0  0  0  0  0  0  0  0  0  0  0
    2.7053    0.5540   -0.3788 H   0  0  0  0  0  0  0  0  0  0  0  0
    1.5208   -0.2980    0.6488 H   0  0  0  0  0  0  0  0  0  0  0  0
    1.9967    4.6515   -0.1017 H   0  0  0  0  0  0  0  0  0  0  0  0
    0.2397    4.3859    0.1570 H   0  0  0  0  0  0  0  0  0  0  0  0
    0.7601    3.1569    2.2759 H   0  0  0  0  0  0  0  0  0  0  0  0
    2.4813    3.4727    2.0376 H   0  0  0  0  0  0  0  0  0  0  0  0
    1.3675    4.8174    2.3349 H   0  0  0  0  0  0  0  0  0  0  0  0
   -3.5214    0.7973   -1.5007 H   0  0  0  0  0  0  0  0  0  0  0  0
   -4.7236    1.4668   -0.3561 H   0  0  0  0  0  0  0  0  0  0  0  0
   -4.4245   -0.3004   -0.4172 H   0  0  0  0  0  0  0  0  0  0  0  0
   -2.3787   -3.3856    1.3523 H   0  0  0  0  0  0  0  0  0  0  0  0
   -0.9822   -2.4389    1.9520 H   0  0  0  0  0  0  0  0  0  0  0  0
   -1.0769   -2.8877    0.2272 H   0  0  0  0  0  0  0  0  0  0  0  0
  1  2  1  0  0  0  0
  2  3  1  0  0  0  0
  3  4  1  0  0  0  0
  4  5  2  0  0  0  0
  4  6  1  0  0  0  0
  6  7  1  0  0  0  0
  7  8  1  0  0  0  0
  7  9  1  0  0  0  0
  9 10  2  0  0  0  0
  9 11  4  0  0  0  0
 11 12  1  0  0  0  0
 12 13  1  0  0  0  0
  7 14  1  0  0  0  0
 14 15  1  0  0  0  0
 15 16  2  0  0  0  0
 15 17  2  0  0  0  0
 17 18  1  0  0  0  0
 15 19  1  0  0  0  0
 19 20  1  0  0  0  0
  1 21  1  0  0  0  0
  1 22  1  0  0  0  0
  1 23  1  0  0  0  0
  2 24  1  0  0  0  0
  2 25  1  0  0  0  0
  6 26  1  0  0  0  0
  6 27  1  0  0  0  0
 12 28  1  0  0  0  0
 12 29  1  0  0  0  0
 13 30  1  0  0  0  0
 13 31  1  0  0  0  0
 13 32  1  0  0  0  0
 18 33  1  0  0  0  0
 18 34  1  0  0  0  0
 18 35  1  0  0  0  0
 20 36  1  0  0  0  0
 20 37  1  0  0  0  0
 20 38  1  0  0  0  0
M  END
