 xtb: 6.7.1 (edcfbbe)
          04092505203D

 41 40  0     0  0            999 V2000
    5.2064   -1.3977   -0.2938 C   0  0  0  0  0  0  0  0  0  0  0  0
    3.9277   -2.1612   -0.5749 C   0  0  0  0  0  0  0  0  0  0  0  0
    2.9300   -1.3355   -1.2142 O   0  0  0  0  0  0  0  0  0  0  0  0
    2.1518   -0.1698   -0.4765 P   0  0  0  0  0  0  0  0  0  0  0  0
    3.0549    1.5451   -0.1644 S   0  0  0  0  0  0  0  0  0  0  0  0
    1.6387   -0.8947    0.8447 O   0  0  0  0  0  0  0  0  0  0  0  0
    1.4696   -0.2601    2.1237 C   0  0  0  0  0  0  0  0  0  0  0  0
    2.3826   -0.9254    3.1348 C   0  0  0  0  0  0  0  0  0  0  0  0
    0.5567   -0.1246   -1.8649 S   0  0  0  0  0  0  0  0  0  0  0  0
   -0.0413    1.5418   -1.4689 C   0  0  0  0  0  0  0  0  0  0  0  0
   -0.6384    1.6932    0.2367 S   0  0  0  0  0  0  0  0  0  0  0  0
   -2.1675    0.2376    0.0918 P   0  0  0  0  0  0  0  0  0  0  0  0
   -3.1638    0.1409   -1.5963 S   0  0  0  0  0  0  0  0  0  0  0  0
   -3.0496    0.4733    1.3907 O   0  0  0  0  0  0  0  0  0  0  0  0
   -4.1858    1.3558    1.4060 C   0  0  0  0  0  0  0  0  0  0  0  0
   -3.7825    2.8085    1.2569 C   0  0  0  0  0  0  0  0  0  0  0  0
   -1.3457   -1.0506    0.5153 O   0  0  0  0  0  0  0  0  0  0  0  0
   -1.7268   -2.3772    0.1023 C   0  0  0  0  0  0  0  0  0  0  0  0
   -2.9979   -2.8304    0.7889 C   0  0  0  0  0  0  0  0  0  0  0  0
    5.9459   -2.0746    0.1224 H   0  0  0  0  0  0  0  0  0  0  0  0
    5.5933   -0.9611   -1.2110 H   0  0  0  0  0  0  0  0  0  0  0  0
    5.0194   -0.5928    0.4153 H   0  0  0  0  0  0  0  0  0  0  0  0
    3.5040   -2.5706    0.3454 H   0  0  0  0  0  0  0  0  0  0  0  0
    4.0933   -2.9642   -1.2953 H   0  0  0  0  0  0  0  0  0  0  0  0
    1.7017    0.8062    2.0282 H   0  0  0  0  0  0  0  0  0  0  0  0
    0.4166   -0.3787    2.3891 H   0  0  0  0  0  0  0  0  0  0  0  0
    2.1810   -1.9920    3.1802 H   0  0  0  0  0  0  0  0  0  0  0  0
    3.4229   -0.7707    2.8579 H   0  0  0  0  0  0  0  0  0  0  0  0
    2.2077   -0.4857    4.1113 H   0  0  0  0  0  0  0  0  0  0  0  0
   -0.8539    1.7511   -2.1633 H   0  0  0  0  0  0  0  0  0  0  0  0
    0.7704    2.2611   -1.5753 H   0  0  0  0  0  0  0  0  0  0  0  0
   -4.8628    1.0606    0.5981 H   0  0  0  0  0  0  0  0  0  0  0  0
   -4.6528    1.1637    2.3729 H   0  0  0  0  0  0  0  0  0  0  0  0
   -3.3758    2.9822    0.2615 H   0  0  0  0  0  0  0  0  0  0  0  0
   -4.6543    3.4398    1.3955 H   0  0  0  0  0  0  0  0  0  0  0  0
   -3.0257    3.0689    1.9926 H   0  0  0  0  0  0  0  0  0  0  0  0
   -1.8476   -2.3803   -0.9862 H   0  0  0  0  0  0  0  0  0  0  0  0
   -0.8697   -2.9940    0.3771 H   0  0  0  0  0  0  0  0  0  0  0  0
   -2.8934   -2.7487    1.8675 H   0  0  0  0  0  0  0  0  0  0  0  0
   -3.8312   -2.2067    0.4672 H   0  0  0  0  0  0  0  0  0  0  0  0
   -3.2048   -3.8616    0.5205 H   0  0  0  0  0  0  0  0  0  0  0  0
  1  2  1  0  0  0  0
  2  3  1  0  0  0  0
  3  4  2  0  0  0  0
  4  5  2  0  0  0  0
  4  6  2  0  0  0  0
  6  7  1  0  0  0  0
  7  8  1  0  0  0  0
  4  9  1  0  0  0  0
  9 10  1  0  0  0  0
 10 11  1  0  0  0  0
 11 12  1  0  0  0  0
 12 13  2  0  0  0  0
 12 14  2  0  0  0  0
 14 15  1  0  0  0  0
 15 16  1  0  0  0  0
 12 17  2  0  0  0  0
 17 18  1  0  0  0  0
 18 19  1  0  0  0  0
  1 20  1  0  0  0  0
  1 21  1  0  0  0  0
  1 22  1  0  0  0  0
  2 23  1  0  0  0  0
  2 24  1  0  0  0  0
  7 25  1  0  0  0  0
  7 26  1  0  0  0  0
  8 27  1  0  0  0  0
  8 28  1  0  0  0  0
  8 29  1  0  0  0  0
 10 30  1  0  0  0  0
 10 31  1  0  0  0  0
 15 32  1  0  0  0  0
 15 33  1  0  0  0  0
 16 34  1  0  0  0  0
 16 35  1  0  0  0  0
 16 36  1  0  0  0  0
 18 37  1  0  0  0  0
 18 38  1  0  0  0  0
 19 39  1  0  0  0  0
 19 40  1  0  0  0  0
 19 41  1  0  0  0  0
M  END
