 xtb: 6.7.1 (edcfbbe)
          04092505213D

 41 40  0     0  0            999 V2000
    1.8765    2.5948   -0.8666 C   0  0  0  0  0  0  0  0  0  0  0  0
    2.6254    1.2988   -1.1052 C   0  0  0  0  0  0  0  0  0  0  0  0
    1.7789    0.1692   -0.7936 O   0  0  0  0  0  0  0  0  0  0  0  0
    1.9614   -0.7160    0.5020 P   0  0  0  0  0  0  0  0  0  0  0  0
    2.5356    0.2178    2.1304 S   0  0  0  0  0  0  0  0  0  0  0  0
    2.9571   -1.8349   -0.0349 O   0  0  0  0  0  0  0  0  0  0  0  0
    3.4792   -2.8750    0.8202 C   0  0  0  0  0  0  0  0  0  0  0  0
    4.8632   -2.5125    1.3223 C   0  0  0  0  0  0  0  0  0  0  0  0
    0.1219   -1.7257    0.5904 S   0  0  0  0  0  0  0  0  0  0  0  0
   -0.7410   -0.5305    1.6555 C   0  0  0  0  0  0  0  0  0  0  0  0
   -0.8831    1.1183    0.9204 S   0  0  0  0  0  0  0  0  0  0  0  0
   -1.9093    0.6563   -0.8784 P   0  0  0  0  0  0  0  0  0  0  0  0
   -1.0254   -0.1279   -2.4344 S   0  0  0  0  0  0  0  0  0  0  0  0
   -2.4995    2.0668   -1.2898 O   0  0  0  0  0  0  0  0  0  0  0  0
   -3.3108    2.8913   -0.4148 C   0  0  0  0  0  0  0  0  0  0  0  0
   -2.5144    4.0854    0.0716 C   0  0  0  0  0  0  0  0  0  0  0  0
   -3.1364   -0.1831   -0.2880 O   0  0  0  0  0  0  0  0  0  0  0  0
   -3.6611   -1.3919   -0.8729 C   0  0  0  0  0  0  0  0  0  0  0  0
   -3.4370   -2.5691    0.0554 C   0  0  0  0  0  0  0  0  0  0  0  0
    0.9381    2.5858   -1.4182 H   0  0  0  0  0  0  0  0  0  0  0  0
    1.6600    2.7159    0.1930 H   0  0  0  0  0  0  0  0  0  0  0  0
    2.4842    3.4271   -1.2063 H   0  0  0  0  0  0  0  0  0  0  0  0
    3.5306    1.2503   -0.4932 H   0  0  0  0  0  0  0  0  0  0  0  0
    2.8824    1.1729   -2.1583 H   0  0  0  0  0  0  0  0  0  0  0  0
    2.7903   -3.0373    1.6539 H   0  0  0  0  0  0  0  0  0  0  0  0
    3.5033   -3.7651    0.1888 H   0  0  0  0  0  0  0  0  0  0  0  0
    5.2593   -3.3391    1.9031 H   0  0  0  0  0  0  0  0  0  0  0  0
    5.5237   -2.3121    0.4832 H   0  0  0  0  0  0  0  0  0  0  0  0
    4.8151   -1.6269    1.9523 H   0  0  0  0  0  0  0  0  0  0  0  0
   -0.1763   -0.3923    2.5779 H   0  0  0  0  0  0  0  0  0  0  0  0
   -1.7296   -0.9379    1.8510 H   0  0  0  0  0  0  0  0  0  0  0  0
   -4.1535    3.2043   -1.0335 H   0  0  0  0  0  0  0  0  0  0  0  0
   -3.6696    2.2836    0.4185 H   0  0  0  0  0  0  0  0  0  0  0  0
   -2.1280    4.6446   -0.7759 H   0  0  0  0  0  0  0  0  0  0  0  0
   -3.1614    4.7276    0.6606 H   0  0  0  0  0  0  0  0  0  0  0  0
   -1.6786    3.7600    0.6875 H   0  0  0  0  0  0  0  0  0  0  0  0
   -4.7256   -1.2036   -1.0246 H   0  0  0  0  0  0  0  0  0  0  0  0
   -3.1763   -1.5559   -1.8409 H   0  0  0  0  0  0  0  0  0  0  0  0
   -3.8772   -2.3709    1.0288 H   0  0  0  0  0  0  0  0  0  0  0  0
   -3.9067   -3.4480   -0.3741 H   0  0  0  0  0  0  0  0  0  0  0  0
   -2.3720   -2.7630    0.1737 H   0  0  0  0  0  0  0  0  0  0  0  0
  1  2  1  0  0  0  0
  2  3  1  0  0  0  0
  3  4  2  0  0  0  0
  4  5  2  0  0  0  0
  4  6  2  0  0  0  0
  6  7  1  0  0  0  0
  7  8  1  0  0  0  0
  4  9  1  0  0  0  0
  9 10  1  0  0  0  0
 10 11  1  0  0  0  0
 11 12  1  0  0  0  0
 12 13  2  0  0  0  0
 12 14  2  0  0  0  0
 14 15  1  0  0  0  0
 15 16  1  0  0  0  0
 12 17  2  0  0  0  0
 17 18  1  0  0  0  0
 18 19  1  0  0  0  0
  1 20  1  0  0  0  0
  1 21  1  0  0  0  0
  1 22  1  0  0  0  0
  2 23  1  0  0  0  0
  2 24  1  0  0  0  0
  7 25  1  0  0  0  0
  7 26  1  0  0  0  0
  8 27  1  0  0  0  0
  8 28  1  0  0  0  0
  8 29  1  0  0  0  0
 10 30  1  0  0  0  0
 10 31  1  0  0  0  0
 15 32  1  0  0  0  0
 15 33  1  0  0  0  0
 16 34  1  0  0  0  0
 16 35  1  0  0  0  0
 16 36  1  0  0  0  0
 18 37  1  0  0  0  0
 18 38  1  0  0  0  0
 19 39  1  0  0  0  0
 19 40  1  0  0  0  0
 19 41  1  0  0  0  0
M  END
