 xtb: 6.7.1 (edcfbbe)
          04092505203D

 41 40  0     0  0            999 V2000
    4.4182   -0.6470   -2.1460 C   0  0  0  0  0  0  0  0  0  0  0  0
    4.5533    0.0578   -0.8120 C   0  0  0  0  0  0  0  0  0  0  0  0
    3.5053   -0.3054    0.1038 O   0  0  0  0  0  0  0  0  0  0  0  0
    1.9907    0.1395   -0.1068 P   0  0  0  0  0  0  0  0  0  0  0  0
    1.8238    1.9421   -0.8710 S   0  0  0  0  0  0  0  0  0  0  0  0
    1.3981   -0.1564    1.3264 O   0  0  0  0  0  0  0  0  0  0  0  0
    1.9329    0.3529    2.5660 C   0  0  0  0  0  0  0  0  0  0  0  0
    1.5424    1.7993    2.7919 C   0  0  0  0  0  0  0  0  0  0  0  0
    1.1155   -1.4233   -1.2203 S   0  0  0  0  0  0  0  0  0  0  0  0
   -0.0412   -0.4701   -2.2479 C   0  0  0  0  0  0  0  0  0  0  0  0
   -1.7950   -0.7321   -1.8580 S   0  0  0  0  0  0  0  0  0  0  0  0
   -1.8222   -0.3492    0.2491 P   0  0  0  0  0  0  0  0  0  0  0  0
   -1.1907   -1.7714    1.4339 S   0  0  0  0  0  0  0  0  0  0  0  0
   -3.3425    0.0707    0.4473 O   0  0  0  0  0  0  0  0  0  0  0  0
   -4.4440   -0.8243    0.1900 C   0  0  0  0  0  0  0  0  0  0  0  0
   -4.8231   -1.6095    1.4301 C   0  0  0  0  0  0  0  0  0  0  0  0
   -1.0685    1.0227    0.4493 O   0  0  0  0  0  0  0  0  0  0  0  0
   -1.5791    2.2730   -0.0908 C   0  0  0  0  0  0  0  0  0  0  0  0
   -2.3283    3.0467    0.9727 C   0  0  0  0  0  0  0  0  0  0  0  0
    4.3204   -1.7196   -1.9983 H   0  0  0  0  0  0  0  0  0  0  0  0
    3.5370   -0.2835   -2.6725 H   0  0  0  0  0  0  0  0  0  0  0  0
    5.2977   -0.4434   -2.7482 H   0  0  0  0  0  0  0  0  0  0  0  0
    4.5323    1.1441   -0.9471 H   0  0  0  0  0  0  0  0  0  0  0  0
    5.4665   -0.2348   -0.2921 H   0  0  0  0  0  0  0  0  0  0  0  0
    1.4886   -0.3022    3.3184 H   0  0  0  0  0  0  0  0  0  0  0  0
    3.0182    0.2258    2.5584 H   0  0  0  0  0  0  0  0  0  0  0  0
    1.8837    2.1145    3.7728 H   0  0  0  0  0  0  0  0  0  0  0  0
    1.9908    2.4392    2.0340 H   0  0  0  0  0  0  0  0  0  0  0  0
    0.4609    1.8980    2.7361 H   0  0  0  0  0  0  0  0  0  0  0  0
    0.0692   -0.8128   -3.2740 H   0  0  0  0  0  0  0  0  0  0  0  0
    0.2085    0.5914   -2.1595 H   0  0  0  0  0  0  0  0  0  0  0  0
   -5.2562   -0.1661   -0.1252 H   0  0  0  0  0  0  0  0  0  0  0  0
   -4.1777   -1.4920   -0.6338 H   0  0  0  0  0  0  0  0  0  0  0  0
   -3.9996   -2.2495    1.7389 H   0  0  0  0  0  0  0  0  0  0  0  0
   -5.0609   -0.9317    2.2452 H   0  0  0  0  0  0  0  0  0  0  0  0
   -5.6891   -2.2255    1.2103 H   0  0  0  0  0  0  0  0  0  0  0  0
   -0.6899    2.8132   -0.4244 H   0  0  0  0  0  0  0  0  0  0  0  0
   -2.2220    2.0532   -0.9466 H   0  0  0  0  0  0  0  0  0  0  0  0
   -3.1872    2.4777    1.3183 H   0  0  0  0  0  0  0  0  0  0  0  0
   -1.6770    3.2508    1.8184 H   0  0  0  0  0  0  0  0  0  0  0  0
   -2.6649    3.9875    0.5485 H   0  0  0  0  0  0  0  0  0  0  0  0
  1  2  1  0  0  0  0
  2  3  1  0  0  0  0
  3  4  2  0  0  0  0
  4  5  2  0  0  0  0
  4  6  2  0  0  0  0
  6  7  1  0  0  0  0
  7  8  1  0  0  0  0
  4  9  1  0  0  0  0
  9 10  1  0  0  0  0
 10 11  1  0  0  0  0
 11 12  1  0  0  0  0
 12 13  2  0  0  0  0
 12 14  2  0  0  0  0
 14 15  1  0  0  0  0
 15 16  1  0  0  0  0
 12 17  2  0  0  0  0
 17 18  1  0  0  0  0
 18 19  1  0  0  0  0
  1 20  1  0  0  0  0
  1 21  1  0  0  0  0
  1 22  1  0  0  0  0
  2 23  1  0  0  0  0
  2 24  1  0  0  0  0
  7 25  1  0  0  0  0
  7 26  1  0  0  0  0
  8 27  1  0  0  0  0
  8 28  1  0  0  0  0
  8 29  1  0  0  0  0
 10 30  1  0  0  0  0
 10 31  1  0  0  0  0
 15 32  1  0  0  0  0
 15 33  1  0  0  0  0
 16 34  1  0  0  0  0
 16 35  1  0  0  0  0
 16 36  1  0  0  0  0
 18 37  1  0  0  0  0
 18 38  1  0  0  0  0
 19 39  1  0  0  0  0
 19 40  1  0  0  0  0
 19 41  1  0  0  0  0
M  END
