 xtb: 6.7.1 (edcfbbe)
          04092505203D

 41 40  0     0  0            999 V2000
    3.0793    0.7618   -2.8357 C   0  0  0  0  0  0  0  0  0  0  0  0
    3.9252    0.9002   -1.5857 C   0  0  0  0  0  0  0  0  0  0  0  0
    3.6037   -0.1004   -0.6077 O   0  0  0  0  0  0  0  0  0  0  0  0
    2.2020   -0.1333    0.1494 P   0  0  0  0  0  0  0  0  0  0  0  0
    1.6033    1.6623    0.6774 S   0  0  0  0  0  0  0  0  0  0  0  0
    2.4998   -1.1301    1.3382 O   0  0  0  0  0  0  0  0  0  0  0  0
    2.6811   -0.7316    2.7166 C   0  0  0  0  0  0  0  0  0  0  0  0
    1.6736   -1.4594    3.5843 C   0  0  0  0  0  0  0  0  0  0  0  0
    1.0814   -1.4304   -1.0881 S   0  0  0  0  0  0  0  0  0  0  0  0
   -0.1753   -1.9939    0.1074 C   0  0  0  0  0  0  0  0  0  0  0  0
   -0.9840   -0.6672    1.0333 S   0  0  0  0  0  0  0  0  0  0  0  0
   -2.0255    0.2593   -0.5865 P   0  0  0  0  0  0  0  0  0  0  0  0
   -0.9754    1.2307   -1.9262 S   0  0  0  0  0  0  0  0  0  0  0  0
   -3.1452    1.1225    0.1361 O   0  0  0  0  0  0  0  0  0  0  0  0
   -2.9265    2.4773    0.5638 C   0  0  0  0  0  0  0  0  0  0  0  0
   -2.0442    2.5460    1.7932 C   0  0  0  0  0  0  0  0  0  0  0  0
   -2.8475   -0.9142   -1.2495 O   0  0  0  0  0  0  0  0  0  0  0  0
   -4.1406   -1.4043   -0.8119 C   0  0  0  0  0  0  0  0  0  0  0  0
   -4.0986   -2.0467    0.5587 C   0  0  0  0  0  0  0  0  0  0  0  0
    3.4175    1.4712   -3.5840 H   0  0  0  0  0  0  0  0  0  0  0  0
    3.1524   -0.2478   -3.2333 H   0  0  0  0  0  0  0  0  0  0  0  0
    2.0326    0.9711   -2.6071 H   0  0  0  0  0  0  0  0  0  0  0  0
    3.7817    1.8874   -1.1334 H   0  0  0  0  0  0  0  0  0  0  0  0
    4.9833    0.7359   -1.7936 H   0  0  0  0  0  0  0  0  0  0  0  0
    3.7062   -1.0011    2.9764 H   0  0  0  0  0  0  0  0  0  0  0  0
    2.5560    0.3536    2.7914 H   0  0  0  0  0  0  0  0  0  0  0  0
    0.6617   -1.1772    3.3000 H   0  0  0  0  0  0  0  0  0  0  0  0
    1.7897   -2.5335    3.4722 H   0  0  0  0  0  0  0  0  0  0  0  0
    1.8404   -1.1877    4.6214 H   0  0  0  0  0  0  0  0  0  0  0  0
    0.2969   -2.6367    0.8470 H   0  0  0  0  0  0  0  0  0  0  0  0
   -0.9094   -2.5391   -0.4828 H   0  0  0  0  0  0  0  0  0  0  0  0
   -2.4804    3.0380   -0.2641 H   0  0  0  0  0  0  0  0  0  0  0  0
   -3.9312    2.8507    0.7680 H   0  0  0  0  0  0  0  0  0  0  0  0
   -2.4253    1.8903    2.5716 H   0  0  0  0  0  0  0  0  0  0  0  0
   -1.0261    2.2466    1.5457 H   0  0  0  0  0  0  0  0  0  0  0  0
   -2.0201    3.5667    2.1609 H   0  0  0  0  0  0  0  0  0  0  0  0
   -4.8426   -0.5691   -0.8278 H   0  0  0  0  0  0  0  0  0  0  0  0
   -4.4035   -2.1252   -1.5878 H   0  0  0  0  0  0  0  0  0  0  0  0
   -3.8397   -1.3096    1.3152 H   0  0  0  0  0  0  0  0  0  0  0  0
   -5.0808   -2.4514    0.7829 H   0  0  0  0  0  0  0  0  0  0  0  0
   -3.3695   -2.8523    0.5864 H   0  0  0  0  0  0  0  0  0  0  0  0
  1  2  1  0  0  0  0
  2  3  1  0  0  0  0
  3  4  2  0  0  0  0
  4  5  2  0  0  0  0
  4  6  2  0  0  0  0
  6  7  1  0  0  0  0
  7  8  1  0  0  0  0
  4  9  1  0  0  0  0
  9 10  1  0  0  0  0
 10 11  1  0  0  0  0
 11 12  1  0  0  0  0
 12 13  2  0  0  0  0
 12 14  2  0  0  0  0
 14 15  1  0  0  0  0
 15 16  1  0  0  0  0
 12 17  2  0  0  0  0
 17 18  1  0  0  0  0
 18 19  1  0  0  0  0
  1 20  1  0  0  0  0
  1 21  1  0  0  0  0
  1 22  1  0  0  0  0
  2 23  1  0  0  0  0
  2 24  1  0  0  0  0
  7 25  1  0  0  0  0
  7 26  1  0  0  0  0
  8 27  1  0  0  0  0
  8 28  1  0  0  0  0
  8 29  1  0  0  0  0
 10 30  1  0  0  0  0
 10 31  1  0  0  0  0
 15 32  1  0  0  0  0
 15 33  1  0  0  0  0
 16 34  1  0  0  0  0
 16 35  1  0  0  0  0
 16 36  1  0  0  0  0
 18 37  1  0  0  0  0
 18 38  1  0  0  0  0
 19 39  1  0  0  0  0
 19 40  1  0  0  0  0
 19 41  1  0  0  0  0
M  END
