 xtb: 6.7.1 (edcfbbe)
          04092505203D

 41 40  0     0  0            999 V2000
    4.2679   -0.5303   -2.1591 C   0  0  0  0  0  0  0  0  0  0  0  0
    4.4747   -0.2561   -0.6832 C   0  0  0  0  0  0  0  0  0  0  0  0
    3.3669   -0.7001    0.1167 O   0  0  0  0  0  0  0  0  0  0  0  0
    1.9210   -0.0225    0.0485 P   0  0  0  0  0  0  0  0  0  0  0  0
    2.0169    1.9322   -0.1367 S   0  0  0  0  0  0  0  0  0  0  0  0
    1.2945   -0.6063    1.3795 O   0  0  0  0  0  0  0  0  0  0  0  0
    1.6264   -0.0502    2.6684 C   0  0  0  0  0  0  0  0  0  0  0  0
    0.5571   -0.4744    3.6535 C   0  0  0  0  0  0  0  0  0  0  0  0
    0.9063   -1.1168   -1.4272 S   0  0  0  0  0  0  0  0  0  0  0  0
   -0.0794    0.2117   -2.1835 C   0  0  0  0  0  0  0  0  0  0  0  0
   -1.8789    0.0710   -1.9515 S   0  0  0  0  0  0  0  0  0  0  0  0
   -2.0261    0.0419    0.1649 P   0  0  0  0  0  0  0  0  0  0  0  0
   -3.8190    0.3082    0.9019 S   0  0  0  0  0  0  0  0  0  0  0  0
   -0.9056    1.0616    0.6576 O   0  0  0  0  0  0  0  0  0  0  0  0
   -1.2609    2.4140    1.0051 C   0  0  0  0  0  0  0  0  0  0  0  0
   -1.5578    3.2597   -0.2167 C   0  0  0  0  0  0  0  0  0  0  0  0
   -1.3021   -1.2889    0.6377 O   0  0  0  0  0  0  0  0  0  0  0  0
   -2.0076   -2.5359    0.7597 C   0  0  0  0  0  0  0  0  0  0  0  0
   -2.3734   -3.1223   -0.5897 C   0  0  0  0  0  0  0  0  0  0  0  0
    5.1825   -0.3003   -2.6963 H   0  0  0  0  0  0  0  0  0  0  0  0
    4.0078   -1.5738   -2.3172 H   0  0  0  0  0  0  0  0  0  0  0  0
    3.4652    0.0958   -2.5461 H   0  0  0  0  0  0  0  0  0  0  0  0
    4.6187    0.8151   -0.5080 H   0  0  0  0  0  0  0  0  0  0  0  0
    5.3238   -0.8134   -0.2852 H   0  0  0  0  0  0  0  0  0  0  0  0
    2.6113   -0.4268    2.9579 H   0  0  0  0  0  0  0  0  0  0  0  0
    1.6743    1.0409    2.5764 H   0  0  0  0  0  0  0  0  0  0  0  0
    0.5332   -1.5573    3.7331 H   0  0  0  0  0  0  0  0  0  0  0  0
    0.7733   -0.0440    4.6260 H   0  0  0  0  0  0  0  0  0  0  0  0
   -0.4173   -0.1293    3.3153 H   0  0  0  0  0  0  0  0  0  0  0  0
    0.0559    0.1520   -3.2606 H   0  0  0  0  0  0  0  0  0  0  0  0
    0.2761    1.1683   -1.7940 H   0  0  0  0  0  0  0  0  0  0  0  0
   -2.1278    2.3815    1.6724 H   0  0  0  0  0  0  0  0  0  0  0  0
   -0.3893    2.7906    1.5430 H   0  0  0  0  0  0  0  0  0  0  0  0
   -2.4021    2.8420   -0.7647 H   0  0  0  0  0  0  0  0  0  0  0  0
   -1.8079    4.2662    0.1029 H   0  0  0  0  0  0  0  0  0  0  0  0
   -0.6881    3.3029   -0.8683 H   0  0  0  0  0  0  0  0  0  0  0  0
   -1.3088   -3.1770    1.2993 H   0  0  0  0  0  0  0  0  0  0  0  0
   -2.9041   -2.3684    1.3661 H   0  0  0  0  0  0  0  0  0  0  0  0
   -1.4905   -3.1960   -1.2210 H   0  0  0  0  0  0  0  0  0  0  0  0
   -2.7958   -4.1116   -0.4453 H   0  0  0  0  0  0  0  0  0  0  0  0
   -3.1114   -2.4922   -1.0851 H   0  0  0  0  0  0  0  0  0  0  0  0
  1  2  1  0  0  0  0
  2  3  1  0  0  0  0
  3  4  1  0  0  0  0
  4  5  2  0  0  0  0
  4  6  1  0  0  0  0
  6  7  1  0  0  0  0
  7  8  1  0  0  0  0
  4  9  1  0  0  0  0
  9 10  1  0  0  0  0
 10 11  1  0  0  0  0
 11 12  1  0  0  0  0
 12 13  2  0  0  0  0
 12 14  1  0  0  0  0
 14 15  1  0  0  0  0
 15 16  1  0  0  0  0
 12 17  2  0  0  0  0
 17 18  1  0  0  0  0
 18 19  1  0  0  0  0
  1 20  1  0  0  0  0
  1 21  1  0  0  0  0
  1 22  1  0  0  0  0
  2 23  1  0  0  0  0
  2 24  1  0  0  0  0
  7 25  1  0  0  0  0
  7 26  1  0  0  0  0
  8 27  1  0  0  0  0
  8 28  1  0  0  0  0
  8 29  1  0  0  0  0
 10 30  1  0  0  0  0
 10 31  1  0  0  0  0
 15 32  1  0  0  0  0
 15 33  1  0  0  0  0
 16 34  1  0  0  0  0
 16 35  1  0  0  0  0
 16 36  1  0  0  0  0
 18 37  1  0  0  0  0
 18 38  1  0  0  0  0
 19 39  1  0  0  0  0
 19 40  1  0  0  0  0
 19 41  1  0  0  0  0
M  END
