 xtb: 6.7.1 (edcfbbe)
          04092505213D

 41 40  0     0  0            999 V2000
    3.5836    1.6644   -1.8688 C   0  0  0  0  0  0  0  0  0  0  0  0
    3.4031    0.1819   -2.1183 C   0  0  0  0  0  0  0  0  0  0  0  0
    2.2514   -0.3492   -1.4269 O   0  0  0  0  0  0  0  0  0  0  0  0
    2.0597   -0.3273    0.1368 P   0  0  0  0  0  0  0  0  0  0  0  0
    1.4152    1.2935    1.0472 S   0  0  0  0  0  0  0  0  0  0  0  0
    3.5099   -0.7946    0.6123 O   0  0  0  0  0  0  0  0  0  0  0  0
    3.8954   -0.8244    2.0006 C   0  0  0  0  0  0  0  0  0  0  0  0
    4.7408    0.3872    2.3428 C   0  0  0  0  0  0  0  0  0  0  0  0
    0.8491   -2.0387    0.3997 S   0  0  0  0  0  0  0  0  0  0  0  0
   -0.4420   -1.3855    1.5129 C   0  0  0  0  0  0  0  0  0  0  0  0
   -2.1065   -1.4088    0.8036 S   0  0  0  0  0  0  0  0  0  0  0  0
   -2.0170    0.3292   -0.4254 P   0  0  0  0  0  0  0  0  0  0  0  0
   -0.7258    0.3824   -1.8949 S   0  0  0  0  0  0  0  0  0  0  0  0
   -1.8084    1.5239    0.5784 O   0  0  0  0  0  0  0  0  0  0  0  0
   -2.6434    1.7931    1.7326 C   0  0  0  0  0  0  0  0  0  0  0  0
   -3.7425    2.7765    1.3877 C   0  0  0  0  0  0  0  0  0  0  0  0
   -3.5323    0.4894   -0.8805 O   0  0  0  0  0  0  0  0  0  0  0  0
   -4.0566   -0.1442   -2.0604 C   0  0  0  0  0  0  0  0  0  0  0  0
   -4.0767   -1.6539   -1.9392 C   0  0  0  0  0  0  0  0  0  0  0  0
    2.6728    2.1997   -2.1308 H   0  0  0  0  0  0  0  0  0  0  0  0
    3.7991    1.8436   -0.8158 H   0  0  0  0  0  0  0  0  0  0  0  0
    4.4066    2.0373   -2.4701 H   0  0  0  0  0  0  0  0  0  0  0  0
    4.2832   -0.3825   -1.8020 H   0  0  0  0  0  0  0  0  0  0  0  0
    3.1803   -0.0238   -3.1666 H   0  0  0  0  0  0  0  0  0  0  0  0
    2.9989   -0.8594    2.6256 H   0  0  0  0  0  0  0  0  0  0  0  0
    4.4589   -1.7519    2.1158 H   0  0  0  0  0  0  0  0  0  0  0  0
    4.1520    1.2954    2.2318 H   0  0  0  0  0  0  0  0  0  0  0  0
    5.0777    0.3083    3.3712 H   0  0  0  0  0  0  0  0  0  0  0  0
    5.6031    0.4410    1.6843 H   0  0  0  0  0  0  0  0  0  0  0  0
   -0.1707   -0.3607    1.7874 H   0  0  0  0  0  0  0  0  0  0  0  0
   -0.4855   -2.0359    2.3821 H   0  0  0  0  0  0  0  0  0  0  0  0
   -3.0584    0.8498    2.0986 H   0  0  0  0  0  0  0  0  0  0  0  0
   -1.9511    2.2090    2.4678 H   0  0  0  0  0  0  0  0  0  0  0  0
   -4.4212    2.3430    0.6583 H   0  0  0  0  0  0  0  0  0  0  0  0
   -4.2928    3.0212    2.2908 H   0  0  0  0  0  0  0  0  0  0  0  0
   -3.3124    3.6838    0.9722 H   0  0  0  0  0  0  0  0  0  0  0  0
   -5.0630    0.2669   -2.1510 H   0  0  0  0  0  0  0  0  0  0  0  0
   -3.4484    0.1656   -2.9160 H   0  0  0  0  0  0  0  0  0  0  0  0
   -4.5954   -2.0757   -2.7941 H   0  0  0  0  0  0  0  0  0  0  0  0
   -3.0577   -2.0387   -1.9217 H   0  0  0  0  0  0  0  0  0  0  0  0
   -4.5807   -1.9544   -1.0240 H   0  0  0  0  0  0  0  0  0  0  0  0
  1  2  1  0  0  0  0
  2  3  1  0  0  0  0
  3  4  2  0  0  0  0
  4  5  2  0  0  0  0
  4  6  2  0  0  0  0
  6  7  1  0  0  0  0
  7  8  1  0  0  0  0
  4  9  1  0  0  0  0
  9 10  1  0  0  0  0
 10 11  1  0  0  0  0
 11 12  1  0  0  0  0
 12 13  2  0  0  0  0
 12 14  2  0  0  0  0
 14 15  1  0  0  0  0
 15 16  1  0  0  0  0
 12 17  2  0  0  0  0
 17 18  1  0  0  0  0
 18 19  1  0  0  0  0
  1 20  1  0  0  0  0
  1 21  1  0  0  0  0
  1 22  1  0  0  0  0
  2 23  1  0  0  0  0
  2 24  1  0  0  0  0
  7 25  1  0  0  0  0
  7 26  1  0  0  0  0
  8 27  1  0  0  0  0
  8 28  1  0  0  0  0
  8 29  1  0  0  0  0
 10 30  1  0  0  0  0
 10 31  1  0  0  0  0
 15 32  1  0  0  0  0
 15 33  1  0  0  0  0
 16 34  1  0  0  0  0
 16 35  1  0  0  0  0
 16 36  1  0  0  0  0
 18 37  1  0  0  0  0
 18 38  1  0  0  0  0
 19 39  1  0  0  0  0
 19 40  1  0  0  0  0
 19 41  1  0  0  0  0
M  END
