 xtb: 6.7.1 (edcfbbe)
          04092505203D

 41 40  0     0  0            999 V2000
    5.2472   -0.3635   -1.5772 C   0  0  0  0  0  0  0  0  0  0  0  0
    4.5085   -0.7323   -0.3058 C   0  0  0  0  0  0  0  0  0  0  0  0
    3.5632    0.2855    0.0772 O   0  0  0  0  0  0  0  0  0  0  0  0
    2.0759    0.3836   -0.4854 P   0  0  0  0  0  0  0  0  0  0  0  0
    1.8603    0.6752   -2.4065 S   0  0  0  0  0  0  0  0  0  0  0  0
    1.5285    1.5775    0.3809 O   0  0  0  0  0  0  0  0  0  0  0  0
    1.7157    1.6487    1.8180 C   0  0  0  0  0  0  0  0  0  0  0  0
    0.7829    2.7142    2.3520 C   0  0  0  0  0  0  0  0  0  0  0  0
    1.2449   -1.4337    0.2552 S   0  0  0  0  0  0  0  0  0  0  0  0
    0.0528   -1.8231   -1.0642 C   0  0  0  0  0  0  0  0  0  0  0  0
   -1.6361   -2.0165   -0.4577 S   0  0  0  0  0  0  0  0  0  0  0  0
   -1.9526   -0.0082    0.1765 P   0  0  0  0  0  0  0  0  0  0  0  0
   -1.4039    1.4057   -1.0610 S   0  0  0  0  0  0  0  0  0  0  0  0
   -1.2144    0.0985    1.5670 O   0  0  0  0  0  0  0  0  0  0  0  0
   -1.4927   -0.7859    2.6847 C   0  0  0  0  0  0  0  0  0  0  0  0
   -2.4033   -0.1060    3.6853 C   0  0  0  0  0  0  0  0  0  0  0  0
   -3.4840    0.0027    0.6006 O   0  0  0  0  0  0  0  0  0  0  0  0
   -4.5464    0.2814   -0.3281 C   0  0  0  0  0  0  0  0  0  0  0  0
   -4.6760   -0.7867   -1.3943 C   0  0  0  0  0  0  0  0  0  0  0  0
    4.5546   -0.2983   -2.4134 H   0  0  0  0  0  0  0  0  0  0  0  0
    5.7384    0.5987   -1.4594 H   0  0  0  0  0  0  0  0  0  0  0  0
    5.9918   -1.1237   -1.7902 H   0  0  0  0  0  0  0  0  0  0  0  0
    5.1902   -0.7912    0.5449 H   0  0  0  0  0  0  0  0  0  0  0  0
    3.9812   -1.6835   -0.4183 H   0  0  0  0  0  0  0  0  0  0  0  0
    1.4905    0.6662    2.2432 H   0  0  0  0  0  0  0  0  0  0  0  0
    2.7625    1.8946    2.0059 H   0  0  0  0  0  0  0  0  0  0  0  0
   -0.2468    2.4535    2.1197 H   0  0  0  0  0  0  0  0  0  0  0  0
    0.9062    2.7911    3.4274 H   0  0  0  0  0  0  0  0  0  0  0  0
    1.0084    3.6712    1.8900 H   0  0  0  0  0  0  0  0  0  0  0  0
    0.3285   -2.7812   -1.4975 H   0  0  0  0  0  0  0  0  0  0  0  0
    0.0983   -1.0256   -1.8122 H   0  0  0  0  0  0  0  0  0  0  0  0
   -1.9392   -1.7085    2.3044 H   0  0  0  0  0  0  0  0  0  0  0  0
   -0.5137   -1.0054    3.1158 H   0  0  0  0  0  0  0  0  0  0  0  0
   -3.3660    0.1103    3.2301 H   0  0  0  0  0  0  0  0  0  0  0  0
   -2.5486   -0.7661    4.5347 H   0  0  0  0  0  0  0  0  0  0  0  0
   -1.9587    0.8248    4.0264 H   0  0  0  0  0  0  0  0  0  0  0  0
   -5.4355    0.3304    0.3023 H   0  0  0  0  0  0  0  0  0  0  0  0
   -4.3573    1.2583   -0.7834 H   0  0  0  0  0  0  0  0  0  0  0  0
   -4.7375   -1.7721   -0.9393 H   0  0  0  0  0  0  0  0  0  0  0  0
   -5.5715   -0.6017   -1.9789 H   0  0  0  0  0  0  0  0  0  0  0  0
   -3.8125   -0.7581   -2.0573 H   0  0  0  0  0  0  0  0  0  0  0  0
  1  2  1  0  0  0  0
  2  3  1  0  0  0  0
  3  4  2  0  0  0  0
  4  5  2  0  0  0  0
  4  6  2  0  0  0  0
  6  7  1  0  0  0  0
  7  8  1  0  0  0  0
  4  9  1  0  0  0  0
  9 10  1  0  0  0  0
 10 11  1  0  0  0  0
 11 12  1  0  0  0  0
 12 13  2  0  0  0  0
 12 14  2  0  0  0  0
 14 15  1  0  0  0  0
 15 16  1  0  0  0  0
 12 17  2  0  0  0  0
 17 18  1  0  0  0  0
 18 19  1  0  0  0  0
  1 20  1  0  0  0  0
  1 21  1  0  0  0  0
  1 22  1  0  0  0  0
  2 23  1  0  0  0  0
  2 24  1  0  0  0  0
  7 25  1  0  0  0  0
  7 26  1  0  0  0  0
  8 27  1  0  0  0  0
  8 28  1  0  0  0  0
  8 29  1  0  0  0  0
 10 30  1  0  0  0  0
 10 31  1  0  0  0  0
 15 32  1  0  0  0  0
 15 33  1  0  0  0  0
 16 34  1  0  0  0  0
 16 35  1  0  0  0  0
 16 36  1  0  0  0  0
 18 37  1  0  0  0  0
 18 38  1  0  0  0  0
 19 39  1  0  0  0  0
 19 40  1  0  0  0  0
 19 41  1  0  0  0  0
M  END
