 xtb: 6.7.1 (edcfbbe)
          04032520233D

 12 12  0     0  0            999 V2000
   -3.5499   -0.0001    0.0000 C   0  0  0  0  0  0  0  0  0  0  0  0
   -2.8569   -1.1990   -0.0001 C   0  0  0  0  0  0  0  0  0  0  0  0
   -1.4717   -1.2058    0.0001 C   0  0  0  0  0  0  0  0  0  0  0  0
   -0.7970    0.0000    0.0000 C   0  0  0  0  0  0  0  0  0  0  0  0
   -1.4717    1.2059    0.0000 C   0  0  0  0  0  0  0  0  0  0  0  0
   -2.8570    1.1990   -0.0000 C   0  0  0  0  0  0  0  0  0  0  0  0
    1.3362    0.0000   -0.0000 I   0  0  0  0  0  0  0  0  0  0  0  0
   -4.6285   -0.0001   -0.0000 H   0  0  0  0  0  0  0  0  0  0  0  0
   -3.3897   -2.1368    0.0001 H   0  0  0  0  0  0  0  0  0  0  0  0
   -0.9304   -2.1390    0.0001 H   0  0  0  0  0  0  0  0  0  0  0  0
   -0.9304    2.1390   -0.0002 H   0  0  0  0  0  0  0  0  0  0  0  0
   -3.3900    2.1369    0.0003 H   0  0  0  0  0  0  0  0  0  0  0  0
  1  2  4  0  0  0  0
  2  3  4  0  0  0  0
  3  4  4  0  0  0  0
  4  5  4  0  0  0  0
  1  6  4  0  0  0  0
  5  6  4  0  0  0  0
  4  7  1  0  0  0  0
  1  8  1  0  0  0  0
  2  9  1  0  0  0  0
  3 10  1  0  0  0  0
  5 11  1  0  0  0  0
  6 12  1  0  0  0  0
M  END
