 xtb: 6.7.1 (edcfbbe)
          04032520013D

 19 19  0     0  0            999 V2000
    2.2096   -1.1746    0.1344 C   0  0  0  0  0  0  0  0  0  0  0  0
    1.3954    0.0896   -0.0075 C   0  0  0  0  0  0  0  0  0  0  0  0
    1.9479    1.1948   -0.0711 O   0  0  0  0  0  0  0  0  0  0  0  0
    0.0650   -0.0138   -0.0558 N   0  0  0  0  0  0  0  0  0  0  0  0
   -0.7393   -1.2257    0.0186 C   0  0  0  0  0  0  0  0  0  0  0  0
   -2.1699   -0.7403   -0.2204 C   0  0  0  0  0  0  0  0  0  0  0  0
   -2.1448    0.6870    0.3209 C   0  0  0  0  0  0  0  0  0  0  0  0
   -0.7733    1.1764   -0.1257 C   0  0  0  0  0  0  0  0  0  0  0  0
    1.6070   -2.0730    0.1447 H   0  0  0  0  0  0  0  0  0  0  0  0
    2.7795   -1.1047    1.0585 H   0  0  0  0  0  0  0  0  0  0  0  0
    2.9236   -1.2148   -0.6852 H   0  0  0  0  0  0  0  0  0  0  0  0
   -0.4266   -1.9493   -0.7359 H   0  0  0  0  0  0  0  0  0  0  0  0
   -0.6421   -1.6759    1.0117 H   0  0  0  0  0  0  0  0  0  0  0  0
   -2.3864   -0.7269   -1.2883 H   0  0  0  0  0  0  0  0  0  0  0  0
   -2.9017   -1.3694    0.2793 H   0  0  0  0  0  0  0  0  0  0  0  0
   -2.9476    1.3037   -0.0734 H   0  0  0  0  0  0  0  0  0  0  0  0
   -2.2040    0.6807    1.4091 H   0  0  0  0  0  0  0  0  0  0  0  0
   -0.7936    1.5487   -1.1557 H   0  0  0  0  0  0  0  0  0  0  0  0
   -0.3477    1.9582    0.5061 H   0  0  0  0  0  0  0  0  0  0  0  0
  1  2  1  0  0  0  0
  2  3  2  0  0  0  0
  2  4  4  0  0  0  0
  4  5  1  0  0  0  0
  5  6  1  0  0  0  0
  6  7  1  0  0  0  0
  4  8  1  0  0  0  0
  7  8  1  0  0  0  0
  1  9  1  0  0  0  0
  1 10  1  0  0  0  0
  1 11  1  0  0  0  0
  5 12  1  0  0  0  0
  5 13  1  0  0  0  0
  6 14  1  0  0  0  0
  6 15  1  0  0  0  0
  7 16  1  0  0  0  0
  7 17  1  0  0  0  0
  8 18  1  0  0  0  0
  8 19  1  0  0  0  0
M  END
