 xtb: 6.7.1 (edcfbbe)
          04032520393D

 22 22  0     0  0            999 V2000
    2.4322    0.0003   -0.7484 C   0  0  0  0  0  0  0  0  0  0  0  0
    1.0379   -0.0002   -0.3692 N   0  0  0  0  0  0  0  0  0  0  0  0
    0.6795    1.1975    0.3698 C   0  0  0  0  0  0  0  0  0  0  0  0
   -0.8308    1.1830    0.7127 C   0  0  0  0  0  0  0  0  0  0  0  0
   -1.5210   -0.0004    0.2424 N   0  0  0  0  0  0  0  0  0  0  0  0
   -0.8311   -1.1852    0.7099 C   0  0  0  0  0  0  0  0  0  0  0  0
    0.6805   -1.1967    0.3722 C   0  0  0  0  0  0  0  0  0  0  0  0
   -1.7838    0.0015   -1.1866 C   0  0  0  0  0  0  0  0  0  0  0  0
    2.6378   -0.8864   -1.3459 H   0  0  0  0  0  0  0  0  0  0  0  0
    3.1082    0.0027    0.1227 H   0  0  0  0  0  0  0  0  0  0  0  0
    2.6361    0.8851   -1.3494 H   0  0  0  0  0  0  0  0  0  0  0  0
    1.2778    1.2827    1.2971 H   0  0  0  0  0  0  0  0  0  0  0  0
    0.9187    2.0565   -0.2610 H   0  0  0  0  0  0  0  0  0  0  0  0
   -0.9589    1.2170    1.7990 H   0  0  0  0  0  0  0  0  0  0  0  0
   -1.3251    2.0570    0.2879 H   0  0  0  0  0  0  0  0  0  0  0  0
   -0.9626   -1.2240    1.7957 H   0  0  0  0  0  0  0  0  0  0  0  0
   -1.3231   -2.0578    0.2798 H   0  0  0  0  0  0  0  0  0  0  0  0
    1.2760   -1.2777    1.3015 H   0  0  0  0  0  0  0  0  0  0  0  0
    0.9238   -2.0570   -0.2553 H   0  0  0  0  0  0  0  0  0  0  0  0
   -2.3733   -0.8822   -1.4261 H   0  0  0  0  0  0  0  0  0  0  0  0
   -0.8752    0.0034   -1.7968 H   0  0  0  0  0  0  0  0  0  0  0  0
   -2.3747    0.8851   -1.4233 H   0  0  0  0  0  0  0  0  0  0  0  0
  1  2  1  0  0  0  0
  2  3  1  0  0  0  0
  3  4  1  0  0  0  0
  4  5  1  0  0  0  0
  5  6  1  0  0  0  0
  2  7  1  0  0  0  0
  6  7  1  0  0  0  0
  5  8  1  0  0  0  0
  1  9  1  0  0  0  0
  1 10  1  0  0  0  0
  1 11  1  0  0  0  0
  3 12  1  0  0  0  0
  3 13  1  0  0  0  0
  4 14  1  0  0  0  0
  4 15  1  0  0  0  0
  6 16  1  0  0  0  0
  6 17  1  0  0  0  0
  7 18  1  0  0  0  0
  7 19  1  0  0  0  0
  8 20  1  0  0  0  0
  8 21  1  0  0  0  0
  8 22  1  0  0  0  0
M  END
