 xtb: 6.7.1 (edcfbbe)
          04092505213D

 41 40  0     0  0            999 V2000
    3.2655   -2.8947    1.0078 C   0  0  0  0  0  0  0  0  0  0  0  0
    1.9001   -2.3335    0.6662 C   0  0  0  0  0  0  0  0  0  0  0  0
    1.9015   -0.8992    0.7491 O   0  0  0  0  0  0  0  0  0  0  0  0
    2.5005    0.0337   -0.4020 P   0  0  0  0  0  0  0  0  0  0  0  0
    2.7894   -0.8610   -2.1161 S   0  0  0  0  0  0  0  0  0  0  0  0
    3.8425    0.6641    0.1502 O   0  0  0  0  0  0  0  0  0  0  0  0
    3.9393    1.6889    1.1679 C   0  0  0  0  0  0  0  0  0  0  0  0
    3.3942    1.2325    2.5045 C   0  0  0  0  0  0  0  0  0  0  0  0
    1.1314    1.6490   -0.3888 S   0  0  0  0  0  0  0  0  0  0  0  0
   -0.0774    0.8720   -1.4931 C   0  0  0  0  0  0  0  0  0  0  0  0
   -0.8869   -0.5785   -0.7850 S   0  0  0  0  0  0  0  0  0  0  0  0
   -2.7505    0.2788   -0.1559 P   0  0  0  0  0  0  0  0  0  0  0  0
   -2.9734    2.1804   -0.5647 S   0  0  0  0  0  0  0  0  0  0  0  0
   -2.9397   -0.1345    1.3695 O   0  0  0  0  0  0  0  0  0  0  0  0
   -2.5025    0.6829    2.4685 C   0  0  0  0  0  0  0  0  0  0  0  0
   -0.9950    0.8165    2.5255 C   0  0  0  0  0  0  0  0  0  0  0  0
   -3.8522   -0.5985   -0.8674 O   0  0  0  0  0  0  0  0  0  0  0  0
   -4.2963   -1.9076   -0.4355 C   0  0  0  0  0  0  0  0  0  0  0  0
   -3.1755   -2.9245   -0.4149 C   0  0  0  0  0  0  0  0  0  0  0  0
    3.5621   -2.5885    2.0072 H   0  0  0  0  0  0  0  0  0  0  0  0
    3.2358   -3.9783    0.9560 H   0  0  0  0  0  0  0  0  0  0  0  0
    4.0000   -2.5249    0.2927 H   0  0  0  0  0  0  0  0  0  0  0  0
    1.1400   -2.6473    1.3826 H   0  0  0  0  0  0  0  0  0  0  0  0
    1.5989   -2.6304   -0.3433 H   0  0  0  0  0  0  0  0  0  0  0  0
    5.0101    1.8937    1.2151 H   0  0  0  0  0  0  0  0  0  0  0  0
    3.4081    2.5759    0.8124 H   0  0  0  0  0  0  0  0  0  0  0  0
    3.5540    2.0170    3.2375 H   0  0  0  0  0  0  0  0  0  0  0  0
    2.3281    1.0321    2.4250 H   0  0  0  0  0  0  0  0  0  0  0  0
    3.9023    0.3286    2.8299 H   0  0  0  0  0  0  0  0  0  0  0  0
    0.4366    0.5438   -2.3961 H   0  0  0  0  0  0  0  0  0  0  0  0
   -0.8299    1.6324   -1.7115 H   0  0  0  0  0  0  0  0  0  0  0  0
   -2.9699    1.6678    2.3756 H   0  0  0  0  0  0  0  0  0  0  0  0
   -2.8948    0.1654    3.3455 H   0  0  0  0  0  0  0  0  0  0  0  0
   -0.6434    1.4161    1.6868 H   0  0  0  0  0  0  0  0  0  0  0  0
   -0.7137    1.3137    3.4484 H   0  0  0  0  0  0  0  0  0  0  0  0
   -0.5221   -0.1622    2.4848 H   0  0  0  0  0  0  0  0  0  0  0  0
   -4.7479   -1.8042    0.5531 H   0  0  0  0  0  0  0  0  0  0  0  0
   -5.0613   -2.1648   -1.1695 H   0  0  0  0  0  0  0  0  0  0  0  0
   -3.5809   -3.8946   -0.1449 H   0  0  0  0  0  0  0  0  0  0  0  0
   -2.7028   -2.9928   -1.3914 H   0  0  0  0  0  0  0  0  0  0  0  0
   -2.4226   -2.6375    0.3172 H   0  0  0  0  0  0  0  0  0  0  0  0
  1  2  1  0  0  0  0
  2  3  1  0  0  0  0
  3  4  1  0  0  0  0
  4  5  2  0  0  0  0
  4  6  2  0  0  0  0
  6  7  1  0  0  0  0
  7  8  1  0  0  0  0
  4  9  1  0  0  0  0
  9 10  1  0  0  0  0
 10 11  1  0  0  0  0
 11 12  1  0  0  0  0
 12 13  2  0  0  0  0
 12 14  2  0  0  0  0
 14 15  1  0  0  0  0
 15 16  1  0  0  0  0
 12 17  2  0  0  0  0
 17 18  1  0  0  0  0
 18 19  1  0  0  0  0
  1 20  1  0  0  0  0
  1 21  1  0  0  0  0
  1 22  1  0  0  0  0
  2 23  1  0  0  0  0
  2 24  1  0  0  0  0
  7 25  1  0  0  0  0
  7 26  1  0  0  0  0
  8 27  1  0  0  0  0
  8 28  1  0  0  0  0
  8 29  1  0  0  0  0
 10 30  1  0  0  0  0
 10 31  1  0  0  0  0
 15 32  1  0  0  0  0
 15 33  1  0  0  0  0
 16 34  1  0  0  0  0
 16 35  1  0  0  0  0
 16 36  1  0  0  0  0
 18 37  1  0  0  0  0
 18 38  1  0  0  0  0
 19 39  1  0  0  0  0
 19 40  1  0  0  0  0
 19 41  1  0  0  0  0
M  END
