 xtb: 6.7.1 (edcfbbe)
          04092505213D

 41 40  0     0  0            999 V2000
    4.6651   -1.1931   -1.8320 C   0  0  0  0  0  0  0  0  0  0  0  0
    4.0777   -1.8576   -0.6050 C   0  0  0  0  0  0  0  0  0  0  0  0
    3.5490   -0.9115    0.3430 O   0  0  0  0  0  0  0  0  0  0  0  0
    2.4432    0.1828    0.0251 P   0  0  0  0  0  0  0  0  0  0  0  0
    2.9781    1.8078   -0.9336 S   0  0  0  0  0  0  0  0  0  0  0  0
    1.9626    0.5852    1.4711 O   0  0  0  0  0  0  0  0  0  0  0  0
    1.8927   -0.2733    2.6360 C   0  0  0  0  0  0  0  0  0  0  0  0
    0.9827   -1.4671    2.4371 C   0  0  0  0  0  0  0  0  0  0  0  0
    0.8986   -0.9298   -0.9490 S   0  0  0  0  0  0  0  0  0  0  0  0
    0.0120    0.5013   -1.5857 C   0  0  0  0  0  0  0  0  0  0  0  0
   -0.8133    1.4586   -0.2858 S   0  0  0  0  0  0  0  0  0  0  0  0
   -2.5503    0.2622   -0.1884 P   0  0  0  0  0  0  0  0  0  0  0  0
   -3.3440   -0.2964   -1.8832 S   0  0  0  0  0  0  0  0  0  0  0  0
   -3.5978    1.0937    0.6636 O   0  0  0  0  0  0  0  0  0  0  0  0
   -3.3596    1.5450    2.0192 C   0  0  0  0  0  0  0  0  0  0  0  0
   -2.8866    2.9847    2.0383 C   0  0  0  0  0  0  0  0  0  0  0  0
   -2.0335   -0.9119    0.7707 O   0  0  0  0  0  0  0  0  0  0  0  0
   -2.6210   -2.2340    0.7490 C   0  0  0  0  0  0  0  0  0  0  0  0
   -1.8153   -3.1685   -0.1296 C   0  0  0  0  0  0  0  0  0  0  0  0
    5.1286   -1.9448   -2.4627 H   0  0  0  0  0  0  0  0  0  0  0  0
    3.8836   -0.6879   -2.3977 H   0  0  0  0  0  0  0  0  0  0  0  0
    5.4095   -0.4545   -1.5444 H   0  0  0  0  0  0  0  0  0  0  0  0
    4.8417   -2.3897   -0.0356 H   0  0  0  0  0  0  0  0  0  0  0  0
    3.2750   -2.5447   -0.8865 H   0  0  0  0  0  0  0  0  0  0  0  0
    2.9074   -0.5914    2.8825 H   0  0  0  0  0  0  0  0  0  0  0  0
    1.5146    0.3960    3.4106 H   0  0  0  0  0  0  0  0  0  0  0  0
    1.4022   -2.1445    1.6959 H   0  0  0  0  0  0  0  0  0  0  0  0
    0.8819   -1.9947    3.3806 H   0  0  0  0  0  0  0  0  0  0  0  0
    0.0004   -1.1440    2.1009 H   0  0  0  0  0  0  0  0  0  0  0  0
   -0.7347    0.1401   -2.2942 H   0  0  0  0  0  0  0  0  0  0  0  0
    0.7231    1.1773   -2.0630 H   0  0  0  0  0  0  0  0  0  0  0  0
   -4.3295    1.4431    2.5093 H   0  0  0  0  0  0  0  0  0  0  0  0
   -2.6321    0.8821    2.4933 H   0  0  0  0  0  0  0  0  0  0  0  0
   -1.9088    3.0753    1.5688 H   0  0  0  0  0  0  0  0  0  0  0  0
   -3.5901    3.6143    1.5005 H   0  0  0  0  0  0  0  0  0  0  0  0
   -2.8181    3.3222    3.0678 H   0  0  0  0  0  0  0  0  0  0  0  0
   -2.6109   -2.5572    1.7912 H   0  0  0  0  0  0  0  0  0  0  0  0
   -3.6530   -2.1606    0.3939 H   0  0  0  0  0  0  0  0  0  0  0  0
   -2.2402   -4.1652   -0.0707 H   0  0  0  0  0  0  0  0  0  0  0  0
   -1.8467   -2.8303   -1.1630 H   0  0  0  0  0  0  0  0  0  0  0  0
   -0.7795   -3.1946    0.1950 H   0  0  0  0  0  0  0  0  0  0  0  0
  1  2  1  0  0  0  0
  2  3  1  0  0  0  0
  3  4  2  0  0  0  0
  4  5  2  0  0  0  0
  4  6  2  0  0  0  0
  6  7  1  0  0  0  0
  7  8  1  0  0  0  0
  4  9  1  0  0  0  0
  9 10  1  0  0  0  0
 10 11  1  0  0  0  0
 11 12  1  0  0  0  0
 12 13  2  0  0  0  0
 12 14  2  0  0  0  0
 14 15  1  0  0  0  0
 15 16  1  0  0  0  0
 12 17  1  0  0  0  0
 17 18  1  0  0  0  0
 18 19  1  0  0  0  0
  1 20  1  0  0  0  0
  1 21  1  0  0  0  0
  1 22  1  0  0  0  0
  2 23  1  0  0  0  0
  2 24  1  0  0  0  0
  7 25  1  0  0  0  0
  7 26  1  0  0  0  0
  8 27  1  0  0  0  0
  8 28  1  0  0  0  0
  8 29  1  0  0  0  0
 10 30  1  0  0  0  0
 10 31  1  0  0  0  0
 15 32  1  0  0  0  0
 15 33  1  0  0  0  0
 16 34  1  0  0  0  0
 16 35  1  0  0  0  0
 16 36  1  0  0  0  0
 18 37  1  0  0  0  0
 18 38  1  0  0  0  0
 19 39  1  0  0  0  0
 19 40  1  0  0  0  0
 19 41  1  0  0  0  0
M  END
