 xtb: 6.7.1 (edcfbbe)
          04092507313D

 38 37  0     0  0            999 V2000
    1.3871   -4.1871   -0.2877 C   0  0  0  0  0  0  0  0  0  0  0  0
    1.7083   -2.8491    0.3489 C   0  0  0  0  0  0  0  0  0  0  0  0
    1.4461   -1.8188   -0.6215 O   0  0  0  0  0  0  0  0  0  0  0  0
    2.1471   -0.6988   -0.5723 C   0  0  0  0  0  0  0  0  0  0  0  0
    2.9486   -0.4256    0.2937 O   0  0  0  0  0  0  0  0  0  0  0  0
    1.8663    0.1842   -1.7752 C   0  0  0  0  0  0  0  0  0  0  0  0
    0.5244    0.9132   -1.6862 C   0  0  0  0  0  0  0  0  0  0  0  0
    0.3878    1.5056   -2.5971 H   0  0  0  0  0  0  0  0  0  0  0  0
    0.4192    1.8524   -0.5010 C   0  0  0  0  0  0  0  0  0  0  0  0
   -0.5826    1.9055    0.1887 O   0  0  0  0  0  0  0  0  0  0  0  0
    1.4934    2.5678   -0.3335 O   0  0  0  0  0  0  0  0  0  0  0  0
    1.5390    3.4910    0.7756 C   0  0  0  0  0  0  0  0  0  0  0  0
    0.8811    4.8113    0.4111 C   0  0  0  0  0  0  0  0  0  0  0  0
   -0.9070   -0.2064   -1.6541 S   0  0  0  0  0  0  0  0  0  0  0  0
   -1.2938   -0.5142    0.4299 P   0  0  0  0  0  0  0  0  0  0  0  0
   -0.0744   -0.2809    1.9558 S   0  0  0  0  0  0  0  0  0  0  0  0
   -2.7708    0.0685    0.6392 O   0  0  0  0  0  0  0  0  0  0  0  0
   -3.1279    1.3292    1.2005 C   0  0  0  0  0  0  0  0  0  0  0  0
   -1.6418   -2.0676    0.3984 O   0  0  0  0  0  0  0  0  0  0  0  0
   -2.6043   -2.6535   -0.4939 C   0  0  0  0  0  0  0  0  0  0  0  0
    2.0126   -4.3485   -1.1608 H   0  0  0  0  0  0  0  0  0  0  0  0
    1.5667   -4.9754    0.4355 H   0  0  0  0  0  0  0  0  0  0  0  0
    0.3441   -4.2074   -0.5891 H   0  0  0  0  0  0  0  0  0  0  0  0
    2.7569   -2.7704    0.6519 H   0  0  0  0  0  0  0  0  0  0  0  0
    1.0807   -2.6606    1.2257 H   0  0  0  0  0  0  0  0  0  0  0  0
    1.8530   -0.4479   -2.6632 H   0  0  0  0  0  0  0  0  0  0  0  0
    2.6640    0.9250   -1.8404 H   0  0  0  0  0  0  0  0  0  0  0  0
    1.0485    3.0239    1.6345 H   0  0  0  0  0  0  0  0  0  0  0  0
    2.6039    3.6114    0.9737 H   0  0  0  0  0  0  0  0  0  0  0  0
    1.3516    5.2316   -0.4733 H   0  0  0  0  0  0  0  0  0  0  0  0
   -0.1787    4.6638    0.2176 H   0  0  0  0  0  0  0  0  0  0  0  0
    0.9934    5.5027    1.2394 H   0  0  0  0  0  0  0  0  0  0  0  0
   -3.1106    2.0958    0.4278 H   0  0  0  0  0  0  0  0  0  0  0  0
   -2.4345    1.5977    1.9977 H   0  0  0  0  0  0  0  0  0  0  0  0
   -4.1328    1.1978    1.5957 H   0  0  0  0  0  0  0  0  0  0  0  0
   -2.6608   -3.6995   -0.2026 H   0  0  0  0  0  0  0  0  0  0  0  0
   -2.2631   -2.5567   -1.5248 H   0  0  0  0  0  0  0  0  0  0  0  0
   -3.5712   -2.1688   -0.3729 H   0  0  0  0  0  0  0  0  0  0  0  0
  1  2  1  0  0  0  0
  2  3  1  0  0  0  0
  3  4  1  0  0  0  0
  4  5  2  0  0  0  0
  4  6  1  0  0  0  0
  6  7  1  0  0  0  0
  7  8  1  0  0  0  0
  7  9  1  0  0  0  0
  9 10  2  0  0  0  0
  9 11  4  0  0  0  0
 11 12  1  0  0  0  0
 12 13  1  0  0  0  0
  7 14  1  0  0  0  0
 14 15  1  0  0  0  0
 15 16  2  0  0  0  0
 15 17  1  0  0  0  0
 17 18  1  0  0  0  0
 15 19  1  0  0  0  0
 19 20  1  0  0  0  0
  1 21  1  0  0  0  0
  1 22  1  0  0  0  0
  1 23  1  0  0  0  0
  2 24  1  0  0  0  0
  2 25  1  0  0  0  0
  6 26  1  0  0  0  0
  6 27  1  0  0  0  0
 12 28  1  0  0  0  0
 12 29  1  0  0  0  0
 13 30  1  0  0  0  0
 13 31  1  0  0  0  0
 13 32  1  0  0  0  0
 18 33  1  0  0  0  0
 18 34  1  0  0  0  0
 18 35  1  0  0  0  0
 20 36  1  0  0  0  0
 20 37  1  0  0  0  0
 20 38  1  0  0  0  0
M  END
