 xtb: 6.7.1 (edcfbbe)
          04092505203D

 41 40  0     0  0            999 V2000
    4.1472   -1.7814   -1.7862 C   0  0  0  0  0  0  0  0  0  0  0  0
    4.6175   -1.1122   -0.5106 C   0  0  0  0  0  0  0  0  0  0  0  0
    3.5386   -0.8659    0.4066 O   0  0  0  0  0  0  0  0  0  0  0  0
    2.3929    0.1959    0.1123 P   0  0  0  0  0  0  0  0  0  0  0  0
    3.0035    1.8407   -0.7561 S   0  0  0  0  0  0  0  0  0  0  0  0
    1.8092    0.4925    1.5459 O   0  0  0  0  0  0  0  0  0  0  0  0
    0.9992   -0.3887    2.3608 C   0  0  0  0  0  0  0  0  0  0  0  0
    1.6492   -1.7338    2.6017 C   0  0  0  0  0  0  0  0  0  0  0  0
    0.8907   -0.9098   -0.9289 S   0  0  0  0  0  0  0  0  0  0  0  0
    0.0694    0.5205   -1.6605 C   0  0  0  0  0  0  0  0  0  0  0  0
   -0.8023    1.5366   -0.4390 S   0  0  0  0  0  0  0  0  0  0  0  0
   -2.5315    0.3238   -0.3155 P   0  0  0  0  0  0  0  0  0  0  0  0
   -3.1923   -0.4897   -1.9646 S   0  0  0  0  0  0  0  0  0  0  0  0
   -3.6357    1.2791    0.3011 O   0  0  0  0  0  0  0  0  0  0  0  0
   -3.4203    2.3210    1.2805 C   0  0  0  0  0  0  0  0  0  0  0  0
   -2.8612    1.7916    2.5845 C   0  0  0  0  0  0  0  0  0  0  0  0
   -2.1137   -0.7168    0.8263 O   0  0  0  0  0  0  0  0  0  0  0  0
   -2.6343   -2.0629    0.8903 C   0  0  0  0  0  0  0  0  0  0  0  0
   -1.6591   -3.0524    0.2864 C   0  0  0  0  0  0  0  0  0  0  0  0
    3.5341   -1.0925   -2.3652 H   0  0  0  0  0  0  0  0  0  0  0  0
    5.0099   -2.0648   -2.3806 H   0  0  0  0  0  0  0  0  0  0  0  0
    3.5602   -2.6670   -1.5569 H   0  0  0  0  0  0  0  0  0  0  0  0
    5.1063   -0.1587   -0.7346 H   0  0  0  0  0  0  0  0  0  0  0  0
    5.2964   -1.7534    0.0532 H   0  0  0  0  0  0  0  0  0  0  0  0
    0.8802    0.1739    3.2884 H   0  0  0  0  0  0  0  0  0  0  0  0
    0.0269   -0.5074    1.8747 H   0  0  0  0  0  0  0  0  0  0  0  0
    2.6409   -1.6017    3.0261 H   0  0  0  0  0  0  0  0  0  0  0  0
    1.0358   -2.3050    3.2921 H   0  0  0  0  0  0  0  0  0  0  0  0
    1.7405   -2.2819    1.6658 H   0  0  0  0  0  0  0  0  0  0  0  0
   -0.6452    0.1459   -2.3947 H   0  0  0  0  0  0  0  0  0  0  0  0
    0.8164    1.1683   -2.1203 H   0  0  0  0  0  0  0  0  0  0  0  0
   -2.7517    3.0680    0.8446 H   0  0  0  0  0  0  0  0  0  0  0  0
   -4.4154    2.7492    1.4121 H   0  0  0  0  0  0  0  0  0  0  0  0
   -2.8128    2.6038    3.3032 H   0  0  0  0  0  0  0  0  0  0  0  0
   -3.4993    1.0037    2.9761 H   0  0  0  0  0  0  0  0  0  0  0  0
   -1.8593    1.3963    2.4308 H   0  0  0  0  0  0  0  0  0  0  0  0
   -2.7853   -2.2490    1.9548 H   0  0  0  0  0  0  0  0  0  0  0  0
   -3.5948   -2.1000    0.3686 H   0  0  0  0  0  0  0  0  0  0  0  0
   -2.0564   -4.0556    0.4010 H   0  0  0  0  0  0  0  0  0  0  0  0
   -1.5217   -2.8445   -0.7727 H   0  0  0  0  0  0  0  0  0  0  0  0
   -0.6949   -2.9868    0.7812 H   0  0  0  0  0  0  0  0  0  0  0  0
  1  2  1  0  0  0  0
  2  3  1  0  0  0  0
  3  4  2  0  0  0  0
  4  5  2  0  0  0  0
  4  6  2  0  0  0  0
  6  7  1  0  0  0  0
  7  8  1  0  0  0  0
  4  9  1  0  0  0  0
  9 10  1  0  0  0  0
 10 11  1  0  0  0  0
 11 12  1  0  0  0  0
 12 13  2  0  0  0  0
 12 14  2  0  0  0  0
 14 15  1  0  0  0  0
 15 16  1  0  0  0  0
 12 17  1  0  0  0  0
 17 18  1  0  0  0  0
 18 19  1  0  0  0  0
  1 20  1  0  0  0  0
  1 21  1  0  0  0  0
  1 22  1  0  0  0  0
  2 23  1  0  0  0  0
  2 24  1  0  0  0  0
  7 25  1  0  0  0  0
  7 26  1  0  0  0  0
  8 27  1  0  0  0  0
  8 28  1  0  0  0  0
  8 29  1  0  0  0  0
 10 30  1  0  0  0  0
 10 31  1  0  0  0  0
 15 32  1  0  0  0  0
 15 33  1  0  0  0  0
 16 34  1  0  0  0  0
 16 35  1  0  0  0  0
 16 36  1  0  0  0  0
 18 37  1  0  0  0  0
 18 38  1  0  0  0  0
 19 39  1  0  0  0  0
 19 40  1  0  0  0  0
 19 41  1  0  0  0  0
M  END
