 xtb: 6.7.1 (edcfbbe)
          04092505203D

 41 40  0     0  0            999 V2000
    3.7924   -1.1717   -2.3959 C   0  0  0  0  0  0  0  0  0  0  0  0
    4.2153    0.1551   -1.7989 C   0  0  0  0  0  0  0  0  0  0  0  0
    3.6901    0.3614   -0.4768 O   0  0  0  0  0  0  0  0  0  0  0  0
    2.1319    0.5131   -0.1666 P   0  0  0  0  0  0  0  0  0  0  0  0
    1.1411    1.5380   -1.5076 S   0  0  0  0  0  0  0  0  0  0  0  0
    2.1741    1.2372    1.2291 O   0  0  0  0  0  0  0  0  0  0  0  0
    3.1393    1.0016    2.2815 C   0  0  0  0  0  0  0  0  0  0  0  0
    3.0834   -0.4148    2.8114 C   0  0  0  0  0  0  0  0  0  0  0  0
    1.4519   -1.4856    0.1425 S   0  0  0  0  0  0  0  0  0  0  0  0
    0.1355   -1.6020   -1.1068 C   0  0  0  0  0  0  0  0  0  0  0  0
   -1.4941   -1.9711   -0.4043 S   0  0  0  0  0  0  0  0  0  0  0  0
   -2.0287   -0.0940    0.3691 P   0  0  0  0  0  0  0  0  0  0  0  0
   -0.9071    0.7886    1.7057 S   0  0  0  0  0  0  0  0  0  0  0  0
   -3.4744   -0.3321    0.9732 O   0  0  0  0  0  0  0  0  0  0  0  0
   -4.5636   -0.9214    0.2196 C   0  0  0  0  0  0  0  0  0  0  0  0
   -4.7739   -2.3650    0.6295 C   0  0  0  0  0  0  0  0  0  0  0  0
   -2.2051    0.6935   -1.0153 O   0  0  0  0  0  0  0  0  0  0  0  0
   -2.2542    2.1282   -1.0713 C   0  0  0  0  0  0  0  0  0  0  0  0
   -3.5815    2.6603   -0.5721 C   0  0  0  0  0  0  0  0  0  0  0  0
    4.3342   -1.3328   -3.3223 H   0  0  0  0  0  0  0  0  0  0  0  0
    4.0057   -1.9845   -1.7064 H   0  0  0  0  0  0  0  0  0  0  0  0
    2.7251   -1.1581   -2.6112 H   0  0  0  0  0  0  0  0  0  0  0  0
    3.8851    0.9838   -2.4329 H   0  0  0  0  0  0  0  0  0  0  0  0
    5.2958    0.2053   -1.6558 H   0  0  0  0  0  0  0  0  0  0  0  0
    4.1317    1.2392    1.8928 H   0  0  0  0  0  0  0  0  0  0  0  0
    2.8495    1.7261    3.0443 H   0  0  0  0  0  0  0  0  0  0  0  0
    3.3985   -1.1203    2.0438 H   0  0  0  0  0  0  0  0  0  0  0  0
    3.7463   -0.5013    3.6666 H   0  0  0  0  0  0  0  0  0  0  0  0
    2.0685   -0.6588    3.1182 H   0  0  0  0  0  0  0  0  0  0  0  0
    0.3624   -2.4439   -1.7559 H   0  0  0  0  0  0  0  0  0  0  0  0
    0.0909   -0.6616   -1.6635 H   0  0  0  0  0  0  0  0  0  0  0  0
   -5.4323   -0.3100    0.4707 H   0  0  0  0  0  0  0  0  0  0  0  0
   -4.3469   -0.8377   -0.8482 H   0  0  0  0  0  0  0  0  0  0  0  0
   -3.9071   -2.9666    0.3649 H   0  0  0  0  0  0  0  0  0  0  0  0
   -4.9287   -2.4259    1.7031 H   0  0  0  0  0  0  0  0  0  0  0  0
   -5.6481   -2.7544    0.1175 H   0  0  0  0  0  0  0  0  0  0  0  0
   -1.4256    2.5307   -0.4789 H   0  0  0  0  0  0  0  0  0  0  0  0
   -2.0840    2.3601   -2.1239 H   0  0  0  0  0  0  0  0  0  0  0  0
   -3.5973    3.7398   -0.6841 H   0  0  0  0  0  0  0  0  0  0  0  0
   -4.4001    2.2265   -1.1405 H   0  0  0  0  0  0  0  0  0  0  0  0
   -3.7050    2.4122    0.4818 H   0  0  0  0  0  0  0  0  0  0  0  0
  1  2  1  0  0  0  0
  2  3  1  0  0  0  0
  3  4  2  0  0  0  0
  4  5  2  0  0  0  0
  4  6  2  0  0  0  0
  6  7  1  0  0  0  0
  7  8  1  0  0  0  0
  4  9  1  0  0  0  0
  9 10  1  0  0  0  0
 10 11  1  0  0  0  0
 11 12  1  0  0  0  0
 12 13  2  0  0  0  0
 12 14  2  0  0  0  0
 14 15  1  0  0  0  0
 15 16  1  0  0  0  0
 12 17  1  0  0  0  0
 17 18  1  0  0  0  0
 18 19  1  0  0  0  0
  1 20  1  0  0  0  0
  1 21  1  0  0  0  0
  1 22  1  0  0  0  0
  2 23  1  0  0  0  0
  2 24  1  0  0  0  0
  7 25  1  0  0  0  0
  7 26  1  0  0  0  0
  8 27  1  0  0  0  0
  8 28  1  0  0  0  0
  8 29  1  0  0  0  0
 10 30  1  0  0  0  0
 10 31  1  0  0  0  0
 15 32  1  0  0  0  0
 15 33  1  0  0  0  0
 16 34  1  0  0  0  0
 16 35  1  0  0  0  0
 16 36  1  0  0  0  0
 18 37  1  0  0  0  0
 18 38  1  0  0  0  0
 19 39  1  0  0  0  0
 19 40  1  0  0  0  0
 19 41  1  0  0  0  0
M  END
