 xtb: 6.7.1 (edcfbbe)
          04092505203D

 41 40  0     0  0            999 V2000
    1.0810   -2.2088    1.8141 C   0  0  0  0  0  0  0  0  0  0  0  0
    2.1572   -2.2036    0.7455 C   0  0  0  0  0  0  0  0  0  0  0  0
    2.8535   -0.9456    0.7464 O   0  0  0  0  0  0  0  0  0  0  0  0
    2.7235    0.1393   -0.4128 P   0  0  0  0  0  0  0  0  0  0  0  0
    2.9245   -0.5976   -2.2159 S   0  0  0  0  0  0  0  0  0  0  0  0
    3.8793    1.1394   -0.0511 O   0  0  0  0  0  0  0  0  0  0  0  0
    3.8564    2.1427    0.9953 C   0  0  0  0  0  0  0  0  0  0  0  0
    3.5303    1.5644    2.3546 C   0  0  0  0  0  0  0  0  0  0  0  0
    0.9243    1.2477   -0.0751 S   0  0  0  0  0  0  0  0  0  0  0  0
   -0.0390    0.6223   -1.4664 C   0  0  0  0  0  0  0  0  0  0  0  0
   -0.8419   -0.9688   -1.1231 S   0  0  0  0  0  0  0  0  0  0  0  0
   -2.4135   -0.1650    0.0298 P   0  0  0  0  0  0  0  0  0  0  0  0
   -3.2790    1.4652   -0.6479 S   0  0  0  0  0  0  0  0  0  0  0  0
   -1.6870   -0.0581    1.4322 O   0  0  0  0  0  0  0  0  0  0  0  0
   -2.2234    0.7285    2.5229 C   0  0  0  0  0  0  0  0  0  0  0  0
   -1.5452    2.0826    2.5815 C   0  0  0  0  0  0  0  0  0  0  0  0
   -3.4121   -1.3739    0.2913 O   0  0  0  0  0  0  0  0  0  0  0  0
   -4.5111   -1.6734   -0.5858 C   0  0  0  0  0  0  0  0  0  0  0  0
   -4.0386   -2.2010   -1.9252 C   0  0  0  0  0  0  0  0  0  0  0  0
    1.5223   -2.0061    2.7858 H   0  0  0  0  0  0  0  0  0  0  0  0
    0.3262   -1.4543    1.6058 H   0  0  0  0  0  0  0  0  0  0  0  0
    0.6037   -3.1832    1.8312 H   0  0  0  0  0  0  0  0  0  0  0  0
    1.7379   -2.3887   -0.2494 H   0  0  0  0  0  0  0  0  0  0  0  0
    2.9213   -2.9553    0.9544 H   0  0  0  0  0  0  0  0  0  0  0  0
    4.8655    2.5561    0.9625 H   0  0  0  0  0  0  0  0  0  0  0  0
    3.1307    2.9097    0.7129 H   0  0  0  0  0  0  0  0  0  0  0  0
    3.6169    2.3463    3.1028 H   0  0  0  0  0  0  0  0  0  0  0  0
    2.5130    1.1780    2.3614 H   0  0  0  0  0  0  0  0  0  0  0  0
    4.2159    0.7561    2.5946 H   0  0  0  0  0  0  0  0  0  0  0  0
    0.6240    0.4615   -2.3179 H   0  0  0  0  0  0  0  0  0  0  0  0
   -0.8041    1.3670   -1.6880 H   0  0  0  0  0  0  0  0  0  0  0  0
   -3.3037    0.8356    2.3933 H   0  0  0  0  0  0  0  0  0  0  0  0
   -2.0177    0.1369    3.4161 H   0  0  0  0  0  0  0  0  0  0  0  0
   -1.7723    2.6558    1.6852 H   0  0  0  0  0  0  0  0  0  0  0  0
   -1.9035    2.6253    3.4502 H   0  0  0  0  0  0  0  0  0  0  0  0
   -0.4680    1.9602    2.6475 H   0  0  0  0  0  0  0  0  0  0  0  0
   -5.0882   -2.4199   -0.0385 H   0  0  0  0  0  0  0  0  0  0  0  0
   -5.1068   -0.7644   -0.7184 H   0  0  0  0  0  0  0  0  0  0  0  0
   -3.3610   -3.0393   -1.7834 H   0  0  0  0  0  0  0  0  0  0  0  0
   -4.8952   -2.5235   -2.5084 H   0  0  0  0  0  0  0  0  0  0  0  0
   -3.5151   -1.4173   -2.4717 H   0  0  0  0  0  0  0  0  0  0  0  0
  1  2  1  0  0  0  0
  2  3  1  0  0  0  0
  3  4  2  0  0  0  0
  4  5  2  0  0  0  0
  4  6  2  0  0  0  0
  6  7  1  0  0  0  0
  7  8  1  0  0  0  0
  4  9  1  0  0  0  0
  9 10  1  0  0  0  0
 10 11  1  0  0  0  0
 11 12  1  0  0  0  0
 12 13  2  0  0  0  0
 12 14  2  0  0  0  0
 14 15  1  0  0  0  0
 15 16  1  0  0  0  0
 12 17  2  0  0  0  0
 17 18  1  0  0  0  0
 18 19  1  0  0  0  0
  1 20  1  0  0  0  0
  1 21  1  0  0  0  0
  1 22  1  0  0  0  0
  2 23  1  0  0  0  0
  2 24  1  0  0  0  0
  7 25  1  0  0  0  0
  7 26  1  0  0  0  0
  8 27  1  0  0  0  0
  8 28  1  0  0  0  0
  8 29  1  0  0  0  0
 10 30  1  0  0  0  0
 10 31  1  0  0  0  0
 15 32  1  0  0  0  0
 15 33  1  0  0  0  0
 16 34  1  0  0  0  0
 16 35  1  0  0  0  0
 16 36  1  0  0  0  0
 18 37  1  0  0  0  0
 18 38  1  0  0  0  0
 19 39  1  0  0  0  0
 19 40  1  0  0  0  0
 19 41  1  0  0  0  0
M  END
