 xtb: 6.7.1 (edcfbbe)
          04092507313D

 38 37  0     0  0            999 V2000
    4.1505   -2.5470    0.9915 C   0  0  0  0  0  0  0  0  0  0  0  0
    2.6795   -2.2954    0.7272 C   0  0  0  0  0  0  0  0  0  0  0  0
    2.5761   -1.3008   -0.3116 O   0  0  0  0  0  0  0  0  0  0  0  0
    1.4421   -1.1725   -0.9520 C   0  0  0  0  0  0  0  0  0  0  0  0
    0.4460   -1.8411   -0.7311 O   0  0  0  0  0  0  0  0  0  0  0  0
    1.4888   -0.0903   -2.0072 C   0  0  0  0  0  0  0  0  0  0  0  0
    0.3780    0.9326   -1.7616 C   0  0  0  0  0  0  0  0  0  0  0  0
    0.3465    1.6452   -2.5915 H   0  0  0  0  0  0  0  0  0  0  0  0
    0.5489    1.7180   -0.4715 C   0  0  0  0  0  0  0  0  0  0  0  0
   -0.3937    2.0483    0.2186 O   0  0  0  0  0  0  0  0  0  0  0  0
    1.8034    1.9766   -0.2134 O   0  0  0  0  0  0  0  0  0  0  0  0
    2.1160    2.7054    0.9934 C   0  0  0  0  0  0  0  0  0  0  0  0
    1.9376    4.2007    0.7919 C   0  0  0  0  0  0  0  0  0  0  0  0
   -1.2914    0.1925   -1.7551 S   0  0  0  0  0  0  0  0  0  0  0  0
   -1.5550   -0.3863    0.2612 P   0  0  0  0  0  0  0  0  0  0  0  0
   -0.3483   -0.4223    1.8068 S   0  0  0  0  0  0  0  0  0  0  0  0
   -2.8357    0.5761    0.4846 O   0  0  0  0  0  0  0  0  0  0  0  0
   -3.4319    0.7227    1.7733 C   0  0  0  0  0  0  0  0  0  0  0  0
   -2.2065   -1.8464    0.1814 O   0  0  0  0  0  0  0  0  0  0  0  0
   -3.0855   -2.2408   -0.8818 C   0  0  0  0  0  0  0  0  0  0  0  0
    4.6343   -1.6254    1.2991 H   0  0  0  0  0  0  0  0  0  0  0  0
    4.2480   -3.2832    1.7821 H   0  0  0  0  0  0  0  0  0  0  0  0
    4.6343   -2.9181    0.0929 H   0  0  0  0  0  0  0  0  0  0  0  0
    2.1630   -1.9103    1.6126 H   0  0  0  0  0  0  0  0  0  0  0  0
    2.1583   -3.1980    0.3933 H   0  0  0  0  0  0  0  0  0  0  0  0
    1.3210   -0.5546   -2.9800 H   0  0  0  0  0  0  0  0  0  0  0  0
    2.4613    0.3993   -1.9786 H   0  0  0  0  0  0  0  0  0  0  0  0
    1.4725    2.3335    1.7963 H   0  0  0  0  0  0  0  0  0  0  0  0
    3.1560    2.4484    1.1924 H   0  0  0  0  0  0  0  0  0  0  0  0
    0.8927    4.4312    0.5968 H   0  0  0  0  0  0  0  0  0  0  0  0
    2.2484    4.7192    1.6926 H   0  0  0  0  0  0  0  0  0  0  0  0
    2.5411    4.5405   -0.0451 H   0  0  0  0  0  0  0  0  0  0  0  0
   -2.7058    1.1402    2.4726 H   0  0  0  0  0  0  0  0  0  0  0  0
   -3.7815   -0.2418    2.1464 H   0  0  0  0  0  0  0  0  0  0  0  0
   -4.2635    1.4080    1.6316 H   0  0  0  0  0  0  0  0  0  0  0  0
   -3.7453   -1.4180   -1.1613 H   0  0  0  0  0  0  0  0  0  0  0  0
   -3.6578   -3.0783   -0.4898 H   0  0  0  0  0  0  0  0  0  0  0  0
   -2.4908   -2.5506   -1.7403 H   0  0  0  0  0  0  0  0  0  0  0  0
  1  2  1  0  0  0  0
  2  3  1  0  0  0  0
  3  4  4  0  0  0  0
  4  5  2  0  0  0  0
  4  6  1  0  0  0  0
  6  7  1  0  0  0  0
  7  8  1  0  0  0  0
  7  9  1  0  0  0  0
  9 10  2  0  0  0  0
  9 11  4  0  0  0  0
 11 12  1  0  0  0  0
 12 13  1  0  0  0  0
  7 14  1  0  0  0  0
 14 15  1  0  0  0  0
 15 16  2  0  0  0  0
 15 17  1  0  0  0  0
 17 18  1  0  0  0  0
 15 19  1  0  0  0  0
 19 20  1  0  0  0  0
  1 21  1  0  0  0  0
  1 22  1  0  0  0  0
  1 23  1  0  0  0  0
  2 24  1  0  0  0  0
  2 25  1  0  0  0  0
  6 26  1  0  0  0  0
  6 27  1  0  0  0  0
 12 28  1  0  0  0  0
 12 29  1  0  0  0  0
 13 30  1  0  0  0  0
 13 31  1  0  0  0  0
 13 32  1  0  0  0  0
 18 33  1  0  0  0  0
 18 34  1  0  0  0  0
 18 35  1  0  0  0  0
 20 36  1  0  0  0  0
 20 37  1  0  0  0  0
 20 38  1  0  0  0  0
M  END
