 xtb: 6.7.1 (edcfbbe)
          04092505203D

 41 40  0     0  0            999 V2000
    2.6959   -1.0988   -2.6054 C   0  0  0  0  0  0  0  0  0  0  0  0
    2.8830    0.2875   -2.0219 C   0  0  0  0  0  0  0  0  0  0  0  0
    3.1933    0.2115   -0.6202 O   0  0  0  0  0  0  0  0  0  0  0  0
    2.1678    0.3900    0.5734 P   0  0  0  0  0  0  0  0  0  0  0  0
    1.1646    2.0736    0.6137 S   0  0  0  0  0  0  0  0  0  0  0  0
    3.1187    0.3386    1.8299 O   0  0  0  0  0  0  0  0  0  0  0  0
    3.7710   -0.8319    2.3822 C   0  0  0  0  0  0  0  0  0  0  0  0
    4.5971   -1.5897    1.3663 C   0  0  0  0  0  0  0  0  0  0  0  0
    1.0146   -1.3970    0.6688 S   0  0  0  0  0  0  0  0  0  0  0  0
   -0.3861   -0.7332    1.6275 C   0  0  0  0  0  0  0  0  0  0  0  0
   -2.0013   -1.1582    0.9380 S   0  0  0  0  0  0  0  0  0  0  0  0
   -2.0779    0.2288   -0.6806 P   0  0  0  0  0  0  0  0  0  0  0  0
   -0.6540    0.1512   -2.0174 S   0  0  0  0  0  0  0  0  0  0  0  0
   -2.1371    1.6848   -0.0847 O   0  0  0  0  0  0  0  0  0  0  0  0
   -3.1557    2.2021    0.8053 C   0  0  0  0  0  0  0  0  0  0  0  0
   -2.7002    2.1405    2.2505 C   0  0  0  0  0  0  0  0  0  0  0  0
   -3.5646    0.0287   -1.2053 O   0  0  0  0  0  0  0  0  0  0  0  0
   -4.1828   -1.2420   -1.4868 C   0  0  0  0  0  0  0  0  0  0  0  0
   -3.3563   -2.1051   -2.4161 C   0  0  0  0  0  0  0  0  0  0  0  0
    3.5689   -1.7122   -2.4020 H   0  0  0  0  0  0  0  0  0  0  0  0
    1.8137   -1.5713   -2.1795 H   0  0  0  0  0  0  0  0  0  0  0  0
    2.5539   -1.0117   -3.6774 H   0  0  0  0  0  0  0  0  0  0  0  0
    1.9874    0.8983   -2.1686 H   0  0  0  0  0  0  0  0  0  0  0  0
    3.7431    0.7928   -2.4653 H   0  0  0  0  0  0  0  0  0  0  0  0
    4.3910   -0.4140    3.1767 H   0  0  0  0  0  0  0  0  0  0  0  0
    3.0012   -1.4780    2.8117 H   0  0  0  0  0  0  0  0  0  0  0  0
    5.2976   -0.9202    0.8741 H   0  0  0  0  0  0  0  0  0  0  0  0
    5.1466   -2.3763    1.8743 H   0  0  0  0  0  0  0  0  0  0  0  0
    3.9502   -2.0386    0.6151 H   0  0  0  0  0  0  0  0  0  0  0  0
   -0.2787    0.3547    1.6677 H   0  0  0  0  0  0  0  0  0  0  0  0
   -0.3687   -1.1760    2.6199 H   0  0  0  0  0  0  0  0  0  0  0  0
   -3.2843    3.2356    0.4794 H   0  0  0  0  0  0  0  0  0  0  0  0
   -4.0822    1.6468    0.6486 H   0  0  0  0  0  0  0  0  0  0  0  0
   -1.7057    2.5734    2.3392 H   0  0  0  0  0  0  0  0  0  0  0  0
   -3.3907    2.7121    2.8624 H   0  0  0  0  0  0  0  0  0  0  0  0
   -2.6781    1.1143    2.6092 H   0  0  0  0  0  0  0  0  0  0  0  0
   -4.3554   -1.7530   -0.5356 H   0  0  0  0  0  0  0  0  0  0  0  0
   -5.1367   -0.9662   -1.9402 H   0  0  0  0  0  0  0  0  0  0  0  0
   -3.9060   -3.0109   -2.6505 H   0  0  0  0  0  0  0  0  0  0  0  0
   -3.1340   -1.5685   -3.3356 H   0  0  0  0  0  0  0  0  0  0  0  0
   -2.4141   -2.3743   -1.9402 H   0  0  0  0  0  0  0  0  0  0  0  0
  1  2  1  0  0  0  0
  2  3  1  0  0  0  0
  3  4  2  0  0  0  0
  4  5  2  0  0  0  0
  4  6  2  0  0  0  0
  6  7  1  0  0  0  0
  7  8  1  0  0  0  0
  4  9  1  0  0  0  0
  9 10  1  0  0  0  0
 10 11  1  0  0  0  0
 11 12  1  0  0  0  0
 12 13  2  0  0  0  0
 12 14  2  0  0  0  0
 14 15  1  0  0  0  0
 15 16  1  0  0  0  0
 12 17  2  0  0  0  0
 17 18  1  0  0  0  0
 18 19  1  0  0  0  0
  1 20  1  0  0  0  0
  1 21  1  0  0  0  0
  1 22  1  0  0  0  0
  2 23  1  0  0  0  0
  2 24  1  0  0  0  0
  7 25  1  0  0  0  0
  7 26  1  0  0  0  0
  8 27  1  0  0  0  0
  8 28  1  0  0  0  0
  8 29  1  0  0  0  0
 10 30  1  0  0  0  0
 10 31  1  0  0  0  0
 15 32  1  0  0  0  0
 15 33  1  0  0  0  0
 16 34  1  0  0  0  0
 16 35  1  0  0  0  0
 16 36  1  0  0  0  0
 18 37  1  0  0  0  0
 18 38  1  0  0  0  0
 19 39  1  0  0  0  0
 19 40  1  0  0  0  0
 19 41  1  0  0  0  0
M  END
