 xtb: 6.7.1 (edcfbbe)
          04092507313D

 38 37  0     0  0            999 V2000
    1.4993   -3.9273   -1.7643 C   0  0  0  0  0  0  0  0  0  0  0  0
    2.5352   -2.9046   -2.2037 C   0  0  0  0  0  0  0  0  0  0  0  0
    2.3601   -1.6730   -1.4813 O   0  0  0  0  0  0  0  0  0  0  0  0
    2.9664   -1.5338   -0.3175 C   0  0  0  0  0  0  0  0  0  0  0  0
    3.7445   -2.3321    0.1526 O   0  0  0  0  0  0  0  0  0  0  0  0
    2.5998   -0.2274    0.3643 C   0  0  0  0  0  0  0  0  0  0  0  0
    1.1611    0.1783    0.0762 C   0  0  0  0  0  0  0  0  0  0  0  0
    1.0091    0.2868   -1.0038 H   0  0  0  0  0  0  0  0  0  0  0  0
    0.7589    1.4843    0.7279 C   0  0  0  0  0  0  0  0  0  0  0  0
   -0.3349    1.6256    1.2442 O   0  0  0  0  0  0  0  0  0  0  0  0
    1.6768    2.4004    0.6481 O   0  0  0  0  0  0  0  0  0  0  0  0
    1.3625    3.7326    1.1168 C   0  0  0  0  0  0  0  0  0  0  0  0
    0.6752    4.5284    0.0198 C   0  0  0  0  0  0  0  0  0  0  0  0
   -0.0139   -1.1033    0.6655 S   0  0  0  0  0  0  0  0  0  0  0  0
   -1.8053   -0.1124    0.1588 P   0  0  0  0  0  0  0  0  0  0  0  0
   -1.8809    1.2307   -1.2791 S   0  0  0  0  0  0  0  0  0  0  0  0
   -2.4876   -1.4964   -0.2866 O   0  0  0  0  0  0  0  0  0  0  0  0
   -3.8283   -1.5366   -0.7849 C   0  0  0  0  0  0  0  0  0  0  0  0
   -2.7097    0.1897    1.4409 O   0  0  0  0  0  0  0  0  0  0  0  0
   -2.9855    1.4741    1.9993 C   0  0  0  0  0  0  0  0  0  0  0  0
    1.5950   -4.8228   -2.3691 H   0  0  0  0  0  0  0  0  0  0  0  0
    1.6500   -4.1845   -0.7183 H   0  0  0  0  0  0  0  0  0  0  0  0
    0.4982   -3.5190   -1.8791 H   0  0  0  0  0  0  0  0  0  0  0  0
    2.4062   -2.6312   -3.2512 H   0  0  0  0  0  0  0  0  0  0  0  0
    3.5486   -3.2752   -2.0255 H   0  0  0  0  0  0  0  0  0  0  0  0
    3.2688    0.5540   -0.0033 H   0  0  0  0  0  0  0  0  0  0  0  0
    2.7650   -0.3557    1.4343 H   0  0  0  0  0  0  0  0  0  0  0  0
    0.7252    3.6520    2.0006 H   0  0  0  0  0  0  0  0  0  0  0  0
    2.3299    4.1607    1.3774 H   0  0  0  0  0  0  0  0  0  0  0  0
    1.3168    4.5973   -0.8540 H   0  0  0  0  0  0  0  0  0  0  0  0
   -0.2562    4.0453   -0.2710 H   0  0  0  0  0  0  0  0  0  0  0  0
    0.4553    5.5266    0.3829 H   0  0  0  0  0  0  0  0  0  0  0  0
   -4.5357   -1.3753    0.0279 H   0  0  0  0  0  0  0  0  0  0  0  0
   -3.9537   -2.5291   -1.2102 H   0  0  0  0  0  0  0  0  0  0  0  0
   -3.9652   -0.7724   -1.5530 H   0  0  0  0  0  0  0  0  0  0  0  0
   -2.9147    2.2424    1.2281 H   0  0  0  0  0  0  0  0  0  0  0  0
   -2.2736    1.6848    2.7941 H   0  0  0  0  0  0  0  0  0  0  0  0
   -3.9991    1.4171    2.3903 H   0  0  0  0  0  0  0  0  0  0  0  0
  1  2  1  0  0  0  0
  2  3  1  0  0  0  0
  3  4  1  0  0  0  0
  4  5  2  0  0  0  0
  4  6  1  0  0  0  0
  6  7  1  0  0  0  0
  7  8  1  0  0  0  0
  7  9  1  0  0  0  0
  9 10  2  0  0  0  0
  9 11  4  0  0  0  0
 11 12  1  0  0  0  0
 12 13  1  0  0  0  0
  7 14  1  0  0  0  0
 14 15  1  0  0  0  0
 15 16  2  0  0  0  0
 15 17  1  0  0  0  0
 17 18  1  0  0  0  0
 15 19  2  0  0  0  0
 19 20  1  0  0  0  0
  1 21  1  0  0  0  0
  1 22  1  0  0  0  0
  1 23  1  0  0  0  0
  2 24  1  0  0  0  0
  2 25  1  0  0  0  0
  6 26  1  0  0  0  0
  6 27  1  0  0  0  0
 12 28  1  0  0  0  0
 12 29  1  0  0  0  0
 13 30  1  0  0  0  0
 13 31  1  0  0  0  0
 13 32  1  0  0  0  0
 18 33  1  0  0  0  0
 18 34  1  0  0  0  0
 18 35  1  0  0  0  0
 20 36  1  0  0  0  0
 20 37  1  0  0  0  0
 20 38  1  0  0  0  0
M  END
