 xtb: 6.7.1 (edcfbbe)
          04092505213D

 41 40  0     0  0            999 V2000
    2.9642    2.3509   -1.9088 C   0  0  0  0  0  0  0  0  0  0  0  0
    3.7456    2.1198   -0.6308 C   0  0  0  0  0  0  0  0  0  0  0  0
    3.6541    0.7554   -0.1909 O   0  0  0  0  0  0  0  0  0  0  0  0
    2.3209    0.1567    0.4389 P   0  0  0  0  0  0  0  0  0  0  0  0
    1.4358    1.3998    1.6720 S   0  0  0  0  0  0  0  0  0  0  0  0
    2.8559   -1.1902    1.0711 O   0  0  0  0  0  0  0  0  0  0  0  0
    2.9854   -1.4120    2.4942 C   0  0  0  0  0  0  0  0  0  0  0  0
    1.9451   -2.4097    2.9633 C   0  0  0  0  0  0  0  0  0  0  0  0
    1.3022   -0.6059   -1.2608 S   0  0  0  0  0  0  0  0  0  0  0  0
    0.3010   -1.8782   -0.4428 C   0  0  0  0  0  0  0  0  0  0  0  0
   -0.9110   -1.2047    0.7197 S   0  0  0  0  0  0  0  0  0  0  0  0
   -2.1258   -0.2223   -0.7347 P   0  0  0  0  0  0  0  0  0  0  0  0
   -2.2086   -1.1176   -2.4704 S   0  0  0  0  0  0  0  0  0  0  0  0
   -1.6350    1.2677   -0.8442 O   0  0  0  0  0  0  0  0  0  0  0  0
   -1.7603    2.2307    0.2373 C   0  0  0  0  0  0  0  0  0  0  0  0
   -1.0444    3.4924   -0.1921 C   0  0  0  0  0  0  0  0  0  0  0  0
   -3.5088   -0.0639    0.0301 O   0  0  0  0  0  0  0  0  0  0  0  0
   -4.3627   -1.2050    0.2628 C   0  0  0  0  0  0  0  0  0  0  0  0
   -5.7344   -0.6877    0.6445 C   0  0  0  0  0  0  0  0  0  0  0  0
    3.1061    3.3742   -2.2413 H   0  0  0  0  0  0  0  0  0  0  0  0
    3.2984    1.6676   -2.6854 H   0  0  0  0  0  0  0  0  0  0  0  0
    1.9015    2.1783   -1.7350 H   0  0  0  0  0  0  0  0  0  0  0  0
    3.3782    2.7683    0.1722 H   0  0  0  0  0  0  0  0  0  0  0  0
    4.8142    2.2815   -0.7779 H   0  0  0  0  0  0  0  0  0  0  0  0
    3.9987   -1.7906    2.6355 H   0  0  0  0  0  0  0  0  0  0  0  0
    2.8714   -0.4576    3.0175 H   0  0  0  0  0  0  0  0  0  0  0  0
    2.0774   -2.5851    4.0260 H   0  0  0  0  0  0  0  0  0  0  0  0
    0.9432   -2.0182    2.7915 H   0  0  0  0  0  0  0  0  0  0  0  0
    2.0549   -3.3507    2.4310 H   0  0  0  0  0  0  0  0  0  0  0  0
    0.9445   -2.5535    0.1147 H   0  0  0  0  0  0  0  0  0  0  0  0
   -0.2255   -2.3965   -1.2454 H   0  0  0  0  0  0  0  0  0  0  0  0
   -2.8231    2.4063    0.4089 H   0  0  0  0  0  0  0  0  0  0  0  0
   -1.3090    1.8070    1.1392 H   0  0  0  0  0  0  0  0  0  0  0  0
   -1.4333    3.8373   -1.1458 H   0  0  0  0  0  0  0  0  0  0  0  0
   -1.1948    4.2567    0.5630 H   0  0  0  0  0  0  0  0  0  0  0  0
    0.0211    3.3024   -0.2901 H   0  0  0  0  0  0  0  0  0  0  0  0
   -4.3981   -1.8040   -0.6531 H   0  0  0  0  0  0  0  0  0  0  0  0
   -3.9214   -1.8013    1.0658 H   0  0  0  0  0  0  0  0  0  0  0  0
   -6.3915   -1.5303    0.8325 H   0  0  0  0  0  0  0  0  0  0  0  0
   -5.6658   -0.0776    1.5405 H   0  0  0  0  0  0  0  0  0  0  0  0
   -6.1444   -0.0863   -0.1620 H   0  0  0  0  0  0  0  0  0  0  0  0
  1  2  1  0  0  0  0
  2  3  1  0  0  0  0
  3  4  2  0  0  0  0
  4  5  2  0  0  0  0
  4  6  2  0  0  0  0
  6  7  1  0  0  0  0
  7  8  1  0  0  0  0
  4  9  1  0  0  0  0
  9 10  1  0  0  0  0
 10 11  1  0  0  0  0
 11 12  1  0  0  0  0
 12 13  2  0  0  0  0
 12 14  2  0  0  0  0
 14 15  1  0  0  0  0
 15 16  1  0  0  0  0
 12 17  2  0  0  0  0
 17 18  1  0  0  0  0
 18 19  1  0  0  0  0
  1 20  1  0  0  0  0
  1 21  1  0  0  0  0
  1 22  1  0  0  0  0
  2 23  1  0  0  0  0
  2 24  1  0  0  0  0
  7 25  1  0  0  0  0
  7 26  1  0  0  0  0
  8 27  1  0  0  0  0
  8 28  1  0  0  0  0
  8 29  1  0  0  0  0
 10 30  1  0  0  0  0
 10 31  1  0  0  0  0
 15 32  1  0  0  0  0
 15 33  1  0  0  0  0
 16 34  1  0  0  0  0
 16 35  1  0  0  0  0
 16 36  1  0  0  0  0
 18 37  1  0  0  0  0
 18 38  1  0  0  0  0
 19 39  1  0  0  0  0
 19 40  1  0  0  0  0
 19 41  1  0  0  0  0
M  END
