 xtb: 6.7.1 (edcfbbe)
          04092505213D

 41 40  0     0  0            999 V2000
    5.9021   -0.7419   -0.9829 C   0  0  0  0  0  0  0  0  0  0  0  0
    4.6652    0.1063   -0.7682 C   0  0  0  0  0  0  0  0  0  0  0  0
    3.6021   -0.7643   -0.3261 O   0  0  0  0  0  0  0  0  0  0  0  0
    2.3165   -0.1763    0.3932 P   0  0  0  0  0  0  0  0  0  0  0  0
    2.6827    1.0334    1.8899 S   0  0  0  0  0  0  0  0  0  0  0  0
    1.5438   -1.4752    0.8385 O   0  0  0  0  0  0  0  0  0  0  0  0
    1.6392   -2.7783    0.2064 C   0  0  0  0  0  0  0  0  0  0  0  0
    1.1959   -2.7664   -1.2405 C   0  0  0  0  0  0  0  0  0  0  0  0
    1.2273    0.7337   -1.2046 S   0  0  0  0  0  0  0  0  0  0  0  0
    0.2516    1.8589   -0.1735 C   0  0  0  0  0  0  0  0  0  0  0  0
   -0.7099    1.0120    1.1116 S   0  0  0  0  0  0  0  0  0  0  0  0
   -2.3625    0.4224   -0.0860 P   0  0  0  0  0  0  0  0  0  0  0  0
   -2.0083   -0.7620   -1.6105 S   0  0  0  0  0  0  0  0  0  0  0  0
   -2.9434    1.8623   -0.4076 O   0  0  0  0  0  0  0  0  0  0  0  0
   -4.3352    2.1429   -0.6802 C   0  0  0  0  0  0  0  0  0  0  0  0
   -4.8419    1.4165   -1.9085 C   0  0  0  0  0  0  0  0  0  0  0  0
   -3.4139   -0.1555    0.9553 O   0  0  0  0  0  0  0  0  0  0  0  0
   -3.4442   -1.5539    1.2895 C   0  0  0  0  0  0  0  0  0  0  0  0
   -2.2565   -1.9518    2.1416 C   0  0  0  0  0  0  0  0  0  0  0  0
    5.7041   -1.5093   -1.7255 H   0  0  0  0  0  0  0  0  0  0  0  0
    6.7111   -0.1072   -1.3292 H   0  0  0  0  0  0  0  0  0  0  0  0
    6.1948   -1.2180   -0.0513 H   0  0  0  0  0  0  0  0  0  0  0  0
    4.3440    0.5899   -1.6944 H   0  0  0  0  0  0  0  0  0  0  0  0
    4.8297    0.8708   -0.0016 H   0  0  0  0  0  0  0  0  0  0  0  0
    2.6720   -3.1197    0.2948 H   0  0  0  0  0  0  0  0  0  0  0  0
    0.9869   -3.3997    0.8222 H   0  0  0  0  0  0  0  0  0  0  0  0
    1.8570   -2.1400   -1.8358 H   0  0  0  0  0  0  0  0  0  0  0  0
    1.2262   -3.7801   -1.6271 H   0  0  0  0  0  0  0  0  0  0  0  0
    0.1817   -2.3844   -1.3359 H   0  0  0  0  0  0  0  0  0  0  0  0
   -0.4132    2.4076   -0.8358 H   0  0  0  0  0  0  0  0  0  0  0  0
    0.9272    2.5281    0.3584 H   0  0  0  0  0  0  0  0  0  0  0  0
   -4.9172    1.8727    0.2033 H   0  0  0  0  0  0  0  0  0  0  0  0
   -4.3507    3.2253   -0.8194 H   0  0  0  0  0  0  0  0  0  0  0  0
   -5.8627    1.7240   -2.1126 H   0  0  0  0  0  0  0  0  0  0  0  0
   -4.2179    1.6453   -2.7694 H   0  0  0  0  0  0  0  0  0  0  0  0
   -4.8204    0.3399   -1.7451 H   0  0  0  0  0  0  0  0  0  0  0  0
   -4.3856   -1.6788    1.8260 H   0  0  0  0  0  0  0  0  0  0  0  0
   -3.4616   -2.1317    0.3592 H   0  0  0  0  0  0  0  0  0  0  0  0
   -2.3548   -2.9914    2.4368 H   0  0  0  0  0  0  0  0  0  0  0  0
   -1.3331   -1.8283    1.5755 H   0  0  0  0  0  0  0  0  0  0  0  0
   -2.1991   -1.3265    3.0291 H   0  0  0  0  0  0  0  0  0  0  0  0
  1  2  1  0  0  0  0
  2  3  1  0  0  0  0
  3  4  2  0  0  0  0
  4  5  2  0  0  0  0
  4  6  2  0  0  0  0
  6  7  1  0  0  0  0
  7  8  1  0  0  0  0
  4  9  1  0  0  0  0
  9 10  1  0  0  0  0
 10 11  1  0  0  0  0
 11 12  1  0  0  0  0
 12 13  2  0  0  0  0
 12 14  2  0  0  0  0
 14 15  1  0  0  0  0
 15 16  1  0  0  0  0
 12 17  2  0  0  0  0
 17 18  1  0  0  0  0
 18 19  1  0  0  0  0
  1 20  1  0  0  0  0
  1 21  1  0  0  0  0
  1 22  1  0  0  0  0
  2 23  1  0  0  0  0
  2 24  1  0  0  0  0
  7 25  1  0  0  0  0
  7 26  1  0  0  0  0
  8 27  1  0  0  0  0
  8 28  1  0  0  0  0
  8 29  1  0  0  0  0
 10 30  1  0  0  0  0
 10 31  1  0  0  0  0
 15 32  1  0  0  0  0
 15 33  1  0  0  0  0
 16 34  1  0  0  0  0
 16 35  1  0  0  0  0
 16 36  1  0  0  0  0
 18 37  1  0  0  0  0
 18 38  1  0  0  0  0
 19 39  1  0  0  0  0
 19 40  1  0  0  0  0
 19 41  1  0  0  0  0
M  END
