 xtb: 6.7.1 (edcfbbe)
          04092505213D

 41 40  0     0  0            999 V2000
    2.8534   -0.7108   -2.6574 C   0  0  0  0  0  0  0  0  0  0  0  0
    1.6631    0.0298   -2.0854 C   0  0  0  0  0  0  0  0  0  0  0  0
    1.2736   -0.5006   -0.8055 O   0  0  0  0  0  0  0  0  0  0  0  0
    2.1858   -0.2409    0.4980 P   0  0  0  0  0  0  0  0  0  0  0  0
    3.2302    1.4088    0.5025 S   0  0  0  0  0  0  0  0  0  0  0  0
    3.1404   -1.4998    0.6202 O   0  0  0  0  0  0  0  0  0  0  0  0
    2.6823   -2.8733    0.5444 C   0  0  0  0  0  0  0  0  0  0  0  0
    2.5747   -3.4818    1.9281 C   0  0  0  0  0  0  0  0  0  0  0  0
    0.7610   -0.5475    2.0129 S   0  0  0  0  0  0  0  0  0  0  0  0
   -0.0795    1.0704    2.0038 C   0  0  0  0  0  0  0  0  0  0  0  0
   -0.2957    1.8198    0.3691 S   0  0  0  0  0  0  0  0  0  0  0  0
   -1.8238    0.5761   -0.4277 P   0  0  0  0  0  0  0  0  0  0  0  0
   -1.9809    0.6522   -2.3775 S   0  0  0  0  0  0  0  0  0  0  0  0
   -3.1117    0.9845    0.4236 O   0  0  0  0  0  0  0  0  0  0  0  0
   -3.7689    2.2509    0.2392 C   0  0  0  0  0  0  0  0  0  0  0  0
   -4.9096    2.1313   -0.7531 C   0  0  0  0  0  0  0  0  0  0  0  0
   -1.5130   -0.8310    0.2119 O   0  0  0  0  0  0  0  0  0  0  0  0
   -1.8585   -2.0655   -0.4470 C   0  0  0  0  0  0  0  0  0  0  0  0
   -3.3544   -2.2938   -0.4251 C   0  0  0  0  0  0  0  0  0  0  0  0
    2.6333   -1.7716   -2.7471 H   0  0  0  0  0  0  0  0  0  0  0  0
    3.0855   -0.3072   -3.6379 H   0  0  0  0  0  0  0  0  0  0  0  0
    3.7165   -0.5771   -2.0053 H   0  0  0  0  0  0  0  0  0  0  0  0
    0.7735   -0.0798   -2.7098 H   0  0  0  0  0  0  0  0  0  0  0  0
    1.8889    1.0950   -1.9646 H   0  0  0  0  0  0  0  0  0  0  0  0
    1.7244   -2.9007    0.0186 H   0  0  0  0  0  0  0  0  0  0  0  0
    3.4445   -3.3803   -0.0502 H   0  0  0  0  0  0  0  0  0  0  0  0
    3.5242   -3.3875    2.4476 H   0  0  0  0  0  0  0  0  0  0  0  0
    1.8062   -2.9777    2.5103 H   0  0  0  0  0  0  0  0  0  0  0  0
    2.3204   -4.5328    1.8335 H   0  0  0  0  0  0  0  0  0  0  0  0
    0.5230    1.7819    2.5656 H   0  0  0  0  0  0  0  0  0  0  0  0
   -1.0478    0.9097    2.4727 H   0  0  0  0  0  0  0  0  0  0  0  0
   -4.1353    2.5220    1.2312 H   0  0  0  0  0  0  0  0  0  0  0  0
   -3.0349    2.9929   -0.0936 H   0  0  0  0  0  0  0  0  0  0  0  0
   -5.4196    3.0862   -0.8290 H   0  0  0  0  0  0  0  0  0  0  0  0
   -4.5292    1.8548   -1.7341 H   0  0  0  0  0  0  0  0  0  0  0  0
   -5.6133    1.3728   -0.4223 H   0  0  0  0  0  0  0  0  0  0  0  0
   -1.4850   -2.0316   -1.4753 H   0  0  0  0  0  0  0  0  0  0  0  0
   -1.3207   -2.8244    0.1232 H   0  0  0  0  0  0  0  0  0  0  0  0
   -3.7239   -2.2603    0.5961 H   0  0  0  0  0  0  0  0  0  0  0  0
   -3.8501   -1.5168   -1.0059 H   0  0  0  0  0  0  0  0  0  0  0  0
   -3.5798   -3.2612   -0.8624 H   0  0  0  0  0  0  0  0  0  0  0  0
  1  2  1  0  0  0  0
  2  3  1  0  0  0  0
  3  4  1  0  0  0  0
  4  5  2  0  0  0  0
  4  6  2  0  0  0  0
  6  7  1  0  0  0  0
  7  8  1  0  0  0  0
  4  9  1  0  0  0  0
  9 10  1  0  0  0  0
 10 11  1  0  0  0  0
 11 12  1  0  0  0  0
 12 13  2  0  0  0  0
 12 14  1  0  0  0  0
 14 15  1  0  0  0  0
 15 16  1  0  0  0  0
 12 17  2  0  0  0  0
 17 18  1  0  0  0  0
 18 19  1  0  0  0  0
  1 20  1  0  0  0  0
  1 21  1  0  0  0  0
  1 22  1  0  0  0  0
  2 23  1  0  0  0  0
  2 24  1  0  0  0  0
  7 25  1  0  0  0  0
  7 26  1  0  0  0  0
  8 27  1  0  0  0  0
  8 28  1  0  0  0  0
  8 29  1  0  0  0  0
 10 30  1  0  0  0  0
 10 31  1  0  0  0  0
 15 32  1  0  0  0  0
 15 33  1  0  0  0  0
 16 34  1  0  0  0  0
 16 35  1  0  0  0  0
 16 36  1  0  0  0  0
 18 37  1  0  0  0  0
 18 38  1  0  0  0  0
 19 39  1  0  0  0  0
 19 40  1  0  0  0  0
 19 41  1  0  0  0  0
M  END
