 xtb: 6.7.1 (edcfbbe)
          04092505213D

 41 40  0     0  0            999 V2000
    6.0947    0.1690   -1.5116 C   0  0  0  0  0  0  0  0  0  0  0  0
    4.6893    0.6453   -1.2056 C   0  0  0  0  0  0  0  0  0  0  0  0
    3.9723   -0.4540   -0.6051 O   0  0  0  0  0  0  0  0  0  0  0  0
    2.6372   -0.1965    0.1955 P   0  0  0  0  0  0  0  0  0  0  0  0
    2.7270    1.1514    1.6217 S   0  0  0  0  0  0  0  0  0  0  0  0
    2.4449   -1.6938    0.6578 O   0  0  0  0  0  0  0  0  0  0  0  0
    1.4246   -2.1111    1.5860 C   0  0  0  0  0  0  0  0  0  0  0  0
    0.3372   -2.8796    0.8602 C   0  0  0  0  0  0  0  0  0  0  0  0
    1.2119    0.2218   -1.3394 S   0  0  0  0  0  0  0  0  0  0  0  0
    0.2024    1.4327   -0.4391 C   0  0  0  0  0  0  0  0  0  0  0  0
   -0.8578    0.7004    0.8337 S   0  0  0  0  0  0  0  0  0  0  0  0
   -2.4637    0.1414   -0.4668 P   0  0  0  0  0  0  0  0  0  0  0  0
   -2.0328   -1.1006   -1.9144 S   0  0  0  0  0  0  0  0  0  0  0  0
   -3.0113    1.5140   -1.0140 O   0  0  0  0  0  0  0  0  0  0  0  0
   -3.5424    2.5650   -0.1652 C   0  0  0  0  0  0  0  0  0  0  0  0
   -5.0492    2.4581   -0.0566 C   0  0  0  0  0  0  0  0  0  0  0  0
   -3.6027   -0.3406    0.5272 O   0  0  0  0  0  0  0  0  0  0  0  0
   -3.5942   -1.6471    1.1348 C   0  0  0  0  0  0  0  0  0  0  0  0
   -2.9648   -1.5981    2.5133 C   0  0  0  0  0  0  0  0  0  0  0  0
    6.6501    0.9738   -1.9818 H   0  0  0  0  0  0  0  0  0  0  0  0
    6.5953   -0.1267   -0.5940 H   0  0  0  0  0  0  0  0  0  0  0  0
    6.0572   -0.6848   -2.1817 H   0  0  0  0  0  0  0  0  0  0  0  0
    4.1617    0.9425   -2.1166 H   0  0  0  0  0  0  0  0  0  0  0  0
    4.6964    1.4863   -0.5031 H   0  0  0  0  0  0  0  0  0  0  0  0
    1.9397   -2.7508    2.3055 H   0  0  0  0  0  0  0  0  0  0  0  0
    1.0241   -1.2341    2.1072 H   0  0  0  0  0  0  0  0  0  0  0  0
    0.7749   -3.7096    0.3130 H   0  0  0  0  0  0  0  0  0  0  0  0
   -0.3755   -3.2620    1.5837 H   0  0  0  0  0  0  0  0  0  0  0  0
   -0.1839   -2.2422    0.1474 H   0  0  0  0  0  0  0  0  0  0  0  0
   -0.4104    1.9347   -1.1845 H   0  0  0  0  0  0  0  0  0  0  0  0
    0.8603    2.1300    0.0798 H   0  0  0  0  0  0  0  0  0  0  0  0
   -3.0682    2.5021    0.8177 H   0  0  0  0  0  0  0  0  0  0  0  0
   -3.2464    3.4908   -0.6624 H   0  0  0  0  0  0  0  0  0  0  0  0
   -5.3276    1.5340    0.4419 H   0  0  0  0  0  0  0  0  0  0  0  0
   -5.4234    3.3016    0.5152 H   0  0  0  0  0  0  0  0  0  0  0  0
   -5.4954    2.4701   -1.0473 H   0  0  0  0  0  0  0  0  0  0  0  0
   -4.6464   -1.9320    1.1908 H   0  0  0  0  0  0  0  0  0  0  0  0
   -3.0660   -2.3407    0.4728 H   0  0  0  0  0  0  0  0  0  0  0  0
   -3.5043   -0.8985    3.1451 H   0  0  0  0  0  0  0  0  0  0  0  0
   -3.0069   -2.5867    2.9589 H   0  0  0  0  0  0  0  0  0  0  0  0
   -1.9272   -1.2779    2.4485 H   0  0  0  0  0  0  0  0  0  0  0  0
  1  2  1  0  0  0  0
  2  3  1  0  0  0  0
  3  4  2  0  0  0  0
  4  5  2  0  0  0  0
  4  6  2  0  0  0  0
  6  7  1  0  0  0  0
  7  8  1  0  0  0  0
  4  9  1  0  0  0  0
  9 10  1  0  0  0  0
 10 11  1  0  0  0  0
 11 12  1  0  0  0  0
 12 13  2  0  0  0  0
 12 14  2  0  0  0  0
 14 15  1  0  0  0  0
 15 16  1  0  0  0  0
 12 17  2  0  0  0  0
 17 18  1  0  0  0  0
 18 19  1  0  0  0  0
  1 20  1  0  0  0  0
  1 21  1  0  0  0  0
  1 22  1  0  0  0  0
  2 23  1  0  0  0  0
  2 24  1  0  0  0  0
  7 25  1  0  0  0  0
  7 26  1  0  0  0  0
  8 27  1  0  0  0  0
  8 28  1  0  0  0  0
  8 29  1  0  0  0  0
 10 30  1  0  0  0  0
 10 31  1  0  0  0  0
 15 32  1  0  0  0  0
 15 33  1  0  0  0  0
 16 34  1  0  0  0  0
 16 35  1  0  0  0  0
 16 36  1  0  0  0  0
 18 37  1  0  0  0  0
 18 38  1  0  0  0  0
 19 39  1  0  0  0  0
 19 40  1  0  0  0  0
 19 41  1  0  0  0  0
M  END
