 xtb: 6.7.1 (edcfbbe)
          04092505213D

 41 40  0     0  0            999 V2000
    3.5221   -2.8014   -2.0935 C   0  0  0  0  0  0  0  0  0  0  0  0
    3.8857   -1.6959   -1.1229 C   0  0  0  0  0  0  0  0  0  0  0  0
    3.0193   -0.5484   -1.3119 O   0  0  0  0  0  0  0  0  0  0  0  0
    1.8500   -0.1571   -0.3158 P   0  0  0  0  0  0  0  0  0  0  0  0
    1.1215    1.5642   -0.9133 S   0  0  0  0  0  0  0  0  0  0  0  0
    2.4542   -0.1818    1.1672 O   0  0  0  0  0  0  0  0  0  0  0  0
    2.9017    1.0079    1.8388 C   0  0  0  0  0  0  0  0  0  0  0  0
    4.2272    1.4870    1.2828 C   0  0  0  0  0  0  0  0  0  0  0  0
    0.7312   -1.9374   -0.2226 S   0  0  0  0  0  0  0  0  0  0  0  0
   -0.3287   -1.6665    1.2437 C   0  0  0  0  0  0  0  0  0  0  0  0
   -0.6291    0.0685    1.6698 S   0  0  0  0  0  0  0  0  0  0  0  0
   -2.0782    0.5605    0.2234 P   0  0  0  0  0  0  0  0  0  0  0  0
   -2.5393    2.4499    0.0038 S   0  0  0  0  0  0  0  0  0  0  0  0
   -3.3382   -0.3703    0.5529 O   0  0  0  0  0  0  0  0  0  0  0  0
   -4.4128    0.0700    1.3971 C   0  0  0  0  0  0  0  0  0  0  0  0
   -3.9829    0.1799    2.8461 C   0  0  0  0  0  0  0  0  0  0  0  0
   -1.4937   -0.2133   -1.0282 O   0  0  0  0  0  0  0  0  0  0  0  0
   -2.0693   -0.0561   -2.3443 C   0  0  0  0  0  0  0  0  0  0  0  0
   -1.1026   -0.6611   -3.3405 C   0  0  0  0  0  0  0  0  0  0  0  0
    2.5214   -3.1744   -1.8870 H   0  0  0  0  0  0  0  0  0  0  0  0
    3.5537   -2.4254   -3.1123 H   0  0  0  0  0  0  0  0  0  0  0  0
    4.2345   -3.6134   -1.9882 H   0  0  0  0  0  0  0  0  0  0  0  0
    4.8906   -1.3165   -1.3164 H   0  0  0  0  0  0  0  0  0  0  0  0
    3.8107   -2.0338   -0.0867 H   0  0  0  0  0  0  0  0  0  0  0  0
    2.1335    1.7809    1.7315 H   0  0  0  0  0  0  0  0  0  0  0  0
    2.9789    0.7105    2.8854 H   0  0  0  0  0  0  0  0  0  0  0  0
    4.5547    2.3624    1.8346 H   0  0  0  0  0  0  0  0  0  0  0  0
    4.9776    0.7053    1.3661 H   0  0  0  0  0  0  0  0  0  0  0  0
    4.1077    1.7556    0.2331 H   0  0  0  0  0  0  0  0  0  0  0  0
    0.1694   -2.0957    2.1099 H   0  0  0  0  0  0  0  0  0  0  0  0
   -1.2743   -2.1645    1.0392 H   0  0  0  0  0  0  0  0  0  0  0  0
   -4.7654    1.0382    1.0276 H   0  0  0  0  0  0  0  0  0  0  0  0
   -5.1857   -0.6873    1.2586 H   0  0  0  0  0  0  0  0  0  0  0  0
   -3.5710   -0.7631    3.1958 H   0  0  0  0  0  0  0  0  0  0  0  0
   -3.2233    0.9554    2.9461 H   0  0  0  0  0  0  0  0  0  0  0  0
   -4.8401    0.4474    3.4554 H   0  0  0  0  0  0  0  0  0  0  0  0
   -3.0352   -0.5672   -2.3545 H   0  0  0  0  0  0  0  0  0  0  0  0
   -2.2227    1.0128   -2.5280 H   0  0  0  0  0  0  0  0  0  0  0  0
   -0.9459   -1.7128   -3.1166 H   0  0  0  0  0  0  0  0  0  0  0  0
   -1.5090   -0.5562   -4.3409 H   0  0  0  0  0  0  0  0  0  0  0  0
   -0.1465   -0.1442   -3.2868 H   0  0  0  0  0  0  0  0  0  0  0  0
  1  2  1  0  0  0  0
  2  3  1  0  0  0  0
  3  4  2  0  0  0  0
  4  5  2  0  0  0  0
  4  6  1  0  0  0  0
  6  7  1  0  0  0  0
  7  8  1  0  0  0  0
  4  9  1  0  0  0  0
  9 10  1  0  0  0  0
 10 11  1  0  0  0  0
 11 12  1  0  0  0  0
 12 13  2  0  0  0  0
 12 14  2  0  0  0  0
 14 15  1  0  0  0  0
 15 16  1  0  0  0  0
 12 17  2  0  0  0  0
 17 18  1  0  0  0  0
 18 19  1  0  0  0  0
  1 20  1  0  0  0  0
  1 21  1  0  0  0  0
  1 22  1  0  0  0  0
  2 23  1  0  0  0  0
  2 24  1  0  0  0  0
  7 25  1  0  0  0  0
  7 26  1  0  0  0  0
  8 27  1  0  0  0  0
  8 28  1  0  0  0  0
  8 29  1  0  0  0  0
 10 30  1  0  0  0  0
 10 31  1  0  0  0  0
 15 32  1  0  0  0  0
 15 33  1  0  0  0  0
 16 34  1  0  0  0  0
 16 35  1  0  0  0  0
 16 36  1  0  0  0  0
 18 37  1  0  0  0  0
 18 38  1  0  0  0  0
 19 39  1  0  0  0  0
 19 40  1  0  0  0  0
 19 41  1  0  0  0  0
M  END
