 xtb: 6.7.1 (edcfbbe)
          04032520513D

 18 18  0     0  0            999 V2000
    0.0009   -2.4705   -0.0001 C   0  0  0  0  0  0  0  0  0  0  0  0
    1.2025   -1.7820    0.0116 C   0  0  0  0  0  0  0  0  0  0  0  0
    1.1932   -0.3928    0.0150 C   0  0  0  0  0  0  0  0  0  0  0  0
   -0.0010    0.3144    0.0017 C   0  0  0  0  0  0  0  0  0  0  0  0
   -1.1944   -0.3946   -0.0121 C   0  0  0  0  0  0  0  0  0  0  0  0
   -1.2019   -1.7837   -0.0110 C   0  0  0  0  0  0  0  0  0  0  0  0
   -2.4779    0.3841   -0.0047 C   0  0  0  0  0  0  0  0  0  0  0  0
   -3.5598   -0.3608   -0.2717 F   0  0  0  0  0  0  0  0  0  0  0  0
   -2.7154    0.9678    1.1908 F   0  0  0  0  0  0  0  0  0  0  0  0
   -2.4810    1.3881   -0.9029 F   0  0  0  0  0  0  0  0  0  0  0  0
    2.4773    0.3851    0.0054 C   0  0  0  0  0  0  0  0  0  0  0  0
    2.7406    0.9225   -1.2065 F   0  0  0  0  0  0  0  0  0  0  0  0
    2.4641    1.4219    0.8646 F   0  0  0  0  0  0  0  0  0  0  0  0
    3.5523   -0.3507    0.3220 F   0  0  0  0  0  0  0  0  0  0  0  0
    0.0016   -3.5477   -0.0009 H   0  0  0  0  0  0  0  0  0  0  0  0
    2.1406   -2.3139    0.0220 H   0  0  0  0  0  0  0  0  0  0  0  0
   -0.0021    1.3936    0.0026 H   0  0  0  0  0  0  0  0  0  0  0  0
   -2.1391   -2.3170   -0.0218 H   0  0  0  0  0  0  0  0  0  0  0  0
  1  2  4  0  0  0  0
  2  3  4  0  0  0  0
  3  4  4  0  0  0  0
  4  5  4  0  0  0  0
  1  6  4  0  0  0  0
  5  6  4  0  0  0  0
  5  7  1  0  0  0  0
  7  8  1  0  0  0  0
  7  9  1  0  0  0  0
  7 10  1  0  0  0  0
  3 11  1  0  0  0  0
 11 12  1  0  0  0  0
 11 13  1  0  0  0  0
 11 14  1  0  0  0  0
  1 15  1  0  0  0  0
  2 16  1  0  0  0  0
  4 17  1  0  0  0  0
  6 18  1  0  0  0  0
M  END
