 xtb: 6.7.1 (edcfbbe)
          04092507313D

 38 37  0     0  0            999 V2000
    3.2483   -3.2195    0.5443 C   0  0  0  0  0  0  0  0  0  0  0  0
    2.9282   -1.7939    0.9636 C   0  0  0  0  0  0  0  0  0  0  0  0
    2.7346   -0.9465   -0.1863 O   0  0  0  0  0  0  0  0  0  0  0  0
    1.5692   -0.9462   -0.7825 C   0  0  0  0  0  0  0  0  0  0  0  0
    0.6126   -1.6174   -0.4314 O   0  0  0  0  0  0  0  0  0  0  0  0
    1.5164    0.0011   -1.9590 C   0  0  0  0  0  0  0  0  0  0  0  0
    0.3039    0.9220   -1.8387 C   0  0  0  0  0  0  0  0  0  0  0  0
    0.2215    1.5489   -2.7318 H   0  0  0  0  0  0  0  0  0  0  0  0
    0.3355    1.8376   -0.6255 C   0  0  0  0  0  0  0  0  0  0  0  0
   -0.6685    2.3283   -0.1499 O   0  0  0  0  0  0  0  0  0  0  0  0
    1.5508    2.0445   -0.1921 O   0  0  0  0  0  0  0  0  0  0  0  0
    1.7240    2.8820    0.9707 C   0  0  0  0  0  0  0  0  0  0  0  0
    3.2059    3.1544    1.1276 C   0  0  0  0  0  0  0  0  0  0  0  0
   -1.2847    0.0154   -1.8065 S   0  0  0  0  0  0  0  0  0  0  0  0
   -1.5430   -0.3972    0.2497 P   0  0  0  0  0  0  0  0  0  0  0  0
   -0.4206   -0.0272    1.8141 S   0  0  0  0  0  0  0  0  0  0  0  0
   -2.9399    0.4229    0.3178 O   0  0  0  0  0  0  0  0  0  0  0  0
   -3.6392    0.5889    1.5506 C   0  0  0  0  0  0  0  0  0  0  0  0
   -2.0065   -1.9225    0.3425 O   0  0  0  0  0  0  0  0  0  0  0  0
   -2.7692   -2.5566   -0.6960 C   0  0  0  0  0  0  0  0  0  0  0  0
    4.1112   -3.2304   -0.1158 H   0  0  0  0  0  0  0  0  0  0  0  0
    3.4641   -3.8101    1.4283 H   0  0  0  0  0  0  0  0  0  0  0  0
    2.3971   -3.6581    0.0285 H   0  0  0  0  0  0  0  0  0  0  0  0
    3.7632   -1.3375    1.4947 H   0  0  0  0  0  0  0  0  0  0  0  0
    2.0253   -1.7571    1.5807 H   0  0  0  0  0  0  0  0  0  0  0  0
    1.4122   -0.5896   -2.8706 H   0  0  0  0  0  0  0  0  0  0  0  0
    2.4346    0.5857   -1.9898 H   0  0  0  0  0  0  0  0  0  0  0  0
    1.1450    3.7986    0.8238 H   0  0  0  0  0  0  0  0  0  0  0  0
    1.3103    2.3442    1.8305 H   0  0  0  0  0  0  0  0  0  0  0  0
    3.3633    3.7568    2.0157 H   0  0  0  0  0  0  0  0  0  0  0  0
    3.7437    2.2169    1.2306 H   0  0  0  0  0  0  0  0  0  0  0  0
    3.5836    3.6868    0.2600 H   0  0  0  0  0  0  0  0  0  0  0  0
   -3.0110    1.1221    2.2663 H   0  0  0  0  0  0  0  0  0  0  0  0
   -3.9193   -0.3812    1.9654 H   0  0  0  0  0  0  0  0  0  0  0  0
   -4.5211    1.1759    1.3077 H   0  0  0  0  0  0  0  0  0  0  0  0
   -2.0967   -2.8693   -1.4938 H   0  0  0  0  0  0  0  0  0  0  0  0
   -3.5240   -1.8747   -1.0904 H   0  0  0  0  0  0  0  0  0  0  0  0
   -3.2351   -3.4194   -0.2262 H   0  0  0  0  0  0  0  0  0  0  0  0
  1  2  1  0  0  0  0
  2  3  1  0  0  0  0
  3  4  4  0  0  0  0
  4  5  2  0  0  0  0
  4  6  1  0  0  0  0
  6  7  1  0  0  0  0
  7  8  1  0  0  0  0
  7  9  1  0  0  0  0
  9 10  2  0  0  0  0
  9 11  4  0  0  0  0
 11 12  1  0  0  0  0
 12 13  1  0  0  0  0
  7 14  1  0  0  0  0
 14 15  1  0  0  0  0
 15 16  2  0  0  0  0
 15 17  1  0  0  0  0
 17 18  1  0  0  0  0
 15 19  1  0  0  0  0
 19 20  1  0  0  0  0
  1 21  1  0  0  0  0
  1 22  1  0  0  0  0
  1 23  1  0  0  0  0
  2 24  1  0  0  0  0
  2 25  1  0  0  0  0
  6 26  1  0  0  0  0
  6 27  1  0  0  0  0
 12 28  1  0  0  0  0
 12 29  1  0  0  0  0
 13 30  1  0  0  0  0
 13 31  1  0  0  0  0
 13 32  1  0  0  0  0
 18 33  1  0  0  0  0
 18 34  1  0  0  0  0
 18 35  1  0  0  0  0
 20 36  1  0  0  0  0
 20 37  1  0  0  0  0
 20 38  1  0  0  0  0
M  END
