 xtb: 6.7.1 (edcfbbe)
          04092505213D

 41 40  0     0  0            999 V2000
    2.9177    0.2465   -3.0725 C   0  0  0  0  0  0  0  0  0  0  0  0
    3.6675    0.8597   -1.9070 C   0  0  0  0  0  0  0  0  0  0  0  0
    3.5044    0.0949   -0.7020 O   0  0  0  0  0  0  0  0  0  0  0  0
    2.1174   -0.0198    0.0701 P   0  0  0  0  0  0  0  0  0  0  0  0
    1.2026    1.7267    0.1593 S   0  0  0  0  0  0  0  0  0  0  0  0
    2.5620   -0.6236    1.4585 O   0  0  0  0  0  0  0  0  0  0  0  0
    2.7588    0.1438    2.6686 C   0  0  0  0  0  0  0  0  0  0  0  0
    2.0860   -0.5816    3.8167 C   0  0  0  0  0  0  0  0  0  0  0  0
    1.3146   -1.7658   -0.7941 S   0  0  0  0  0  0  0  0  0  0  0  0
    0.0041   -2.2028    0.4116 C   0  0  0  0  0  0  0  0  0  0  0  0
   -0.7145   -0.7979    1.2839 S   0  0  0  0  0  0  0  0  0  0  0  0
   -1.7582    0.1082   -0.3206 P   0  0  0  0  0  0  0  0  0  0  0  0
   -1.0746    0.2249   -2.1494 S   0  0  0  0  0  0  0  0  0  0  0  0
   -2.1478    1.5432    0.2150 O   0  0  0  0  0  0  0  0  0  0  0  0
   -2.2974    1.9412    1.5959 C   0  0  0  0  0  0  0  0  0  0  0  0
   -3.4722    1.2622    2.2683 C   0  0  0  0  0  0  0  0  0  0  0  0
   -3.0480   -0.8413   -0.2287 O   0  0  0  0  0  0  0  0  0  0  0  0
   -3.9751   -0.9930   -1.3142 C   0  0  0  0  0  0  0  0  0  0  0  0
   -4.8511    0.2336   -1.4707 C   0  0  0  0  0  0  0  0  0  0  0  0
    1.8417    0.2999   -2.8993 H   0  0  0  0  0  0  0  0  0  0  0  0
    3.1488    0.7935   -3.9808 H   0  0  0  0  0  0  0  0  0  0  0  0
    3.1974   -0.7970   -3.1958 H   0  0  0  0  0  0  0  0  0  0  0  0
    3.3191    1.8810   -1.7196 H   0  0  0  0  0  0  0  0  0  0  0  0
    4.7453    0.8591   -2.0747 H   0  0  0  0  0  0  0  0  0  0  0  0
    3.8372    0.2227    2.8183 H   0  0  0  0  0  0  0  0  0  0  0  0
    2.3381    1.1446    2.5231 H   0  0  0  0  0  0  0  0  0  0  0  0
    2.2551   -0.0262    4.7333 H   0  0  0  0  0  0  0  0  0  0  0  0
    1.0166   -0.6599    3.6347 H   0  0  0  0  0  0  0  0  0  0  0  0
    2.5015   -1.5797    3.9188 H   0  0  0  0  0  0  0  0  0  0  0  0
    0.4383   -2.8402    1.1788 H   0  0  0  0  0  0  0  0  0  0  0  0
   -0.7652   -2.7293   -0.1502 H   0  0  0  0  0  0  0  0  0  0  0  0
   -1.3605    1.7277    2.1176 H   0  0  0  0  0  0  0  0  0  0  0  0
   -2.4342    3.0220    1.5310 H   0  0  0  0  0  0  0  0  0  0  0  0
   -3.3253    0.1843    2.2883 H   0  0  0  0  0  0  0  0  0  0  0  0
   -3.5542    1.6281    3.2869 H   0  0  0  0  0  0  0  0  0  0  0  0
   -4.3911    1.4863    1.7327 H   0  0  0  0  0  0  0  0  0  0  0  0
   -3.4103   -1.1792   -2.2337 H   0  0  0  0  0  0  0  0  0  0  0  0
   -4.5568   -1.8768   -1.0482 H   0  0  0  0  0  0  0  0  0  0  0  0
   -4.2284    1.0997   -1.6956 H   0  0  0  0  0  0  0  0  0  0  0  0
   -5.5491    0.0782   -2.2873 H   0  0  0  0  0  0  0  0  0  0  0  0
   -5.4039    0.4241   -0.5547 H   0  0  0  0  0  0  0  0  0  0  0  0
  1  2  1  0  0  0  0
  2  3  1  0  0  0  0
  3  4  2  0  0  0  0
  4  5  2  0  0  0  0
  4  6  2  0  0  0  0
  6  7  1  0  0  0  0
  7  8  1  0  0  0  0
  4  9  1  0  0  0  0
  9 10  1  0  0  0  0
 10 11  1  0  0  0  0
 11 12  1  0  0  0  0
 12 13  2  0  0  0  0
 12 14  2  0  0  0  0
 14 15  1  0  0  0  0
 15 16  1  0  0  0  0
 12 17  1  0  0  0  0
 17 18  1  0  0  0  0
 18 19  1  0  0  0  0
  1 20  1  0  0  0  0
  1 21  1  0  0  0  0
  1 22  1  0  0  0  0
  2 23  1  0  0  0  0
  2 24  1  0  0  0  0
  7 25  1  0  0  0  0
  7 26  1  0  0  0  0
  8 27  1  0  0  0  0
  8 28  1  0  0  0  0
  8 29  1  0  0  0  0
 10 30  1  0  0  0  0
 10 31  1  0  0  0  0
 15 32  1  0  0  0  0
 15 33  1  0  0  0  0
 16 34  1  0  0  0  0
 16 35  1  0  0  0  0
 16 36  1  0  0  0  0
 18 37  1  0  0  0  0
 18 38  1  0  0  0  0
 19 39  1  0  0  0  0
 19 40  1  0  0  0  0
 19 41  1  0  0  0  0
M  END
