 xtb: 6.7.1 (edcfbbe)
          04092507313D

 38 37  0     0  0            999 V2000
    2.8290   -3.3117    0.9046 C   0  0  0  0  0  0  0  0  0  0  0  0
    3.0193   -1.8211    1.1273 C   0  0  0  0  0  0  0  0  0  0  0  0
    2.8325   -1.1084   -0.1134 O   0  0  0  0  0  0  0  0  0  0  0  0
    1.7382   -0.4389   -0.3329 C   0  0  0  0  0  0  0  0  0  0  0  0
    0.8267   -0.2991    0.4768 O   0  0  0  0  0  0  0  0  0  0  0  0
    1.6878    0.2100   -1.6907 C   0  0  0  0  0  0  0  0  0  0  0  0
    0.4627    1.1106   -1.7358 C   0  0  0  0  0  0  0  0  0  0  0  0
    0.4420    1.6990   -2.6567 H   0  0  0  0  0  0  0  0  0  0  0  0
    0.4008    2.0608   -0.5485 C   0  0  0  0  0  0  0  0  0  0  0  0
   -0.6245    2.4133   -0.0154 O   0  0  0  0  0  0  0  0  0  0  0  0
    1.6081    2.4662   -0.2038 O   0  0  0  0  0  0  0  0  0  0  0  0
    1.7248    3.4346    0.8592 C   0  0  0  0  0  0  0  0  0  0  0  0
    1.5891    4.8488    0.3196 C   0  0  0  0  0  0  0  0  0  0  0  0
   -1.1077    0.1710   -1.8289 S   0  0  0  0  0  0  0  0  0  0  0  0
   -1.5226   -0.8062   -0.0020 P   0  0  0  0  0  0  0  0  0  0  0  0
   -0.8696   -2.6055    0.4682 S   0  0  0  0  0  0  0  0  0  0  0  0
   -1.7666    0.1577    1.2497 O   0  0  0  0  0  0  0  0  0  0  0  0
   -1.0292    0.1561    2.4652 C   0  0  0  0  0  0  0  0  0  0  0  0
   -3.0431   -0.9110   -0.5292 O   0  0  0  0  0  0  0  0  0  0  0  0
   -4.0277   -1.6924    0.1474 C   0  0  0  0  0  0  0  0  0  0  0  0
    1.7953   -3.5243    0.6373 H   0  0  0  0  0  0  0  0  0  0  0  0
    3.4806   -3.6560    0.1071 H   0  0  0  0  0  0  0  0  0  0  0  0
    3.0680   -3.8428    1.8198 H   0  0  0  0  0  0  0  0  0  0  0  0
    4.0430   -1.5935    1.4281 H   0  0  0  0  0  0  0  0  0  0  0  0
    2.3095   -1.4414    1.8664 H   0  0  0  0  0  0  0  0  0  0  0  0
    1.6227   -0.5616   -2.4595 H   0  0  0  0  0  0  0  0  0  0  0  0
    2.6032    0.7820   -1.8473 H   0  0  0  0  0  0  0  0  0  0  0  0
    0.9540    3.2286    1.6075 H   0  0  0  0  0  0  0  0  0  0  0  0
    2.7166    3.2594    1.2764 H   0  0  0  0  0  0  0  0  0  0  0  0
    0.5922    4.9994   -0.0884 H   0  0  0  0  0  0  0  0  0  0  0  0
    1.7490    5.5556    1.1271 H   0  0  0  0  0  0  0  0  0  0  0  0
    2.3235    5.0232   -0.4615 H   0  0  0  0  0  0  0  0  0  0  0  0
   -0.2221    0.8842    2.4032 H   0  0  0  0  0  0  0  0  0  0  0  0
   -0.6179   -0.8377    2.6537 H   0  0  0  0  0  0  0  0  0  0  0  0
   -1.7371    0.4343    3.2429 H   0  0  0  0  0  0  0  0  0  0  0  0
   -4.3875   -1.1583    1.0267 H   0  0  0  0  0  0  0  0  0  0  0  0
   -3.6052   -2.6554    0.4454 H   0  0  0  0  0  0  0  0  0  0  0  0
   -4.8331   -1.8380   -0.5683 H   0  0  0  0  0  0  0  0  0  0  0  0
  1  2  1  0  0  0  0
  2  3  1  0  0  0  0
  3  4  4  0  0  0  0
  4  5  2  0  0  0  0
  4  6  1  0  0  0  0
  6  7  1  0  0  0  0
  7  8  1  0  0  0  0
  7  9  1  0  0  0  0
  9 10  2  0  0  0  0
  9 11  1  0  0  0  0
 11 12  1  0  0  0  0
 12 13  1  0  0  0  0
  7 14  1  0  0  0  0
 14 15  1  0  0  0  0
 15 16  2  0  0  0  0
 15 17  1  0  0  0  0
 17 18  1  0  0  0  0
 15 19  1  0  0  0  0
 19 20  1  0  0  0  0
  1 21  1  0  0  0  0
  1 22  1  0  0  0  0
  1 23  1  0  0  0  0
  2 24  1  0  0  0  0
  2 25  1  0  0  0  0
  6 26  1  0  0  0  0
  6 27  1  0  0  0  0
 12 28  1  0  0  0  0
 12 29  1  0  0  0  0
 13 30  1  0  0  0  0
 13 31  1  0  0  0  0
 13 32  1  0  0  0  0
 18 33  1  0  0  0  0
 18 34  1  0  0  0  0
 18 35  1  0  0  0  0
 20 36  1  0  0  0  0
 20 37  1  0  0  0  0
 20 38  1  0  0  0  0
M  END
