 xtb: 6.7.1 (edcfbbe)
          04092505203D

 41 40  0     0  0            999 V2000
    4.1369   -2.3645   -0.9716 C   0  0  0  0  0  0  0  0  0  0  0  0
    4.3465   -0.9601   -0.4420 C   0  0  0  0  0  0  0  0  0  0  0  0
    3.1195   -0.3759    0.0246 O   0  0  0  0  0  0  0  0  0  0  0  0
    1.9737    0.1007   -0.9875 P   0  0  0  0  0  0  0  0  0  0  0  0
    2.6546    0.8834   -2.6471 S   0  0  0  0  0  0  0  0  0  0  0  0
    1.1219    1.0361   -0.0308 O   0  0  0  0  0  0  0  0  0  0  0  0
    1.5585    2.3831    0.2558 C   0  0  0  0  0  0  0  0  0  0  0  0
    0.7893    3.3721   -0.5947 C   0  0  0  0  0  0  0  0  0  0  0  0
    0.6475   -1.5078   -1.1922 S   0  0  0  0  0  0  0  0  0  0  0  0
    0.2482   -1.8590    0.5649 C   0  0  0  0  0  0  0  0  0  0  0  0
   -1.5347   -1.9251    0.8366 S   0  0  0  0  0  0  0  0  0  0  0  0
   -1.8840    0.1649    1.0622 P   0  0  0  0  0  0  0  0  0  0  0  0
   -0.8430    1.0623    2.4510 S   0  0  0  0  0  0  0  0  0  0  0  0
   -3.4634    0.2468    1.2358 O   0  0  0  0  0  0  0  0  0  0  0  0
   -4.1148    0.1270    2.5129 C   0  0  0  0  0  0  0  0  0  0  0  0
   -3.9814   -1.2634    3.0989 C   0  0  0  0  0  0  0  0  0  0  0  0
   -1.6905    0.7965   -0.3713 O   0  0  0  0  0  0  0  0  0  0  0  0
   -2.4435    0.3657   -1.5334 C   0  0  0  0  0  0  0  0  0  0  0  0
   -1.8194    1.0133   -2.7516 C   0  0  0  0  0  0  0  0  0  0  0  0
    5.0965   -2.7886   -1.2492 H   0  0  0  0  0  0  0  0  0  0  0  0
    3.6730   -2.9917   -0.2148 H   0  0  0  0  0  0  0  0  0  0  0  0
    3.4954   -2.3374   -1.8521 H   0  0  0  0  0  0  0  0  0  0  0  0
    4.7621   -0.3139   -1.2221 H   0  0  0  0  0  0  0  0  0  0  0  0
    4.9955   -0.9494    0.4348 H   0  0  0  0  0  0  0  0  0  0  0  0
    1.3499    2.5233    1.3186 H   0  0  0  0  0  0  0  0  0  0  0  0
    2.6350    2.4573    0.0780 H   0  0  0  0  0  0  0  0  0  0  0  0
    1.0716    4.3817   -0.3143 H   0  0  0  0  0  0  0  0  0  0  0  0
    1.0122    3.2148   -1.6481 H   0  0  0  0  0  0  0  0  0  0  0  0
   -0.2773    3.2361   -0.4337 H   0  0  0  0  0  0  0  0  0  0  0  0
    0.6872   -1.0867    1.1952 H   0  0  0  0  0  0  0  0  0  0  0  0
    0.6337   -2.8459    0.8049 H   0  0  0  0  0  0  0  0  0  0  0  0
   -3.6874    0.8735    3.1896 H   0  0  0  0  0  0  0  0  0  0  0  0
   -5.1548    0.3751    2.2960 H   0  0  0  0  0  0  0  0  0  0  0  0
   -4.2905   -2.0115    2.3732 H   0  0  0  0  0  0  0  0  0  0  0  0
   -2.9470   -1.4533    3.3802 H   0  0  0  0  0  0  0  0  0  0  0  0
   -4.6054   -1.3392    3.9836 H   0  0  0  0  0  0  0  0  0  0  0  0
   -2.3965   -0.7257   -1.5962 H   0  0  0  0  0  0  0  0  0  0  0  0
   -3.4807    0.6771   -1.3978 H   0  0  0  0  0  0  0  0  0  0  0  0
   -2.3582    0.6968   -3.6386 H   0  0  0  0  0  0  0  0  0  0  0  0
   -1.8634    2.0957   -2.6690 H   0  0  0  0  0  0  0  0  0  0  0  0
   -0.7767    0.7152   -2.8471 H   0  0  0  0  0  0  0  0  0  0  0  0
  1  2  1  0  0  0  0
  2  3  1  0  0  0  0
  3  4  1  0  0  0  0
  4  5  2  0  0  0  0
  4  6  1  0  0  0  0
  6  7  1  0  0  0  0
  7  8  1  0  0  0  0
  4  9  1  0  0  0  0
  9 10  1  0  0  0  0
 10 11  1  0  0  0  0
 11 12  1  0  0  0  0
 12 13  2  0  0  0  0
 12 14  2  0  0  0  0
 14 15  1  0  0  0  0
 15 16  1  0  0  0  0
 12 17  2  0  0  0  0
 17 18  1  0  0  0  0
 18 19  1  0  0  0  0
  1 20  1  0  0  0  0
  1 21  1  0  0  0  0
  1 22  1  0  0  0  0
  2 23  1  0  0  0  0
  2 24  1  0  0  0  0
  7 25  1  0  0  0  0
  7 26  1  0  0  0  0
  8 27  1  0  0  0  0
  8 28  1  0  0  0  0
  8 29  1  0  0  0  0
 10 30  1  0  0  0  0
 10 31  1  0  0  0  0
 15 32  1  0  0  0  0
 15 33  1  0  0  0  0
 16 34  1  0  0  0  0
 16 35  1  0  0  0  0
 16 36  1  0  0  0  0
 18 37  1  0  0  0  0
 18 38  1  0  0  0  0
 19 39  1  0  0  0  0
 19 40  1  0  0  0  0
 19 41  1  0  0  0  0
M  END
