 xtb: 6.7.1 (edcfbbe)
          04092505203D

 41 40  0     0  0            999 V2000
    2.8156    0.0173   -3.4895 C   0  0  0  0  0  0  0  0  0  0  0  0
    3.0498   -0.4699   -2.0758 C   0  0  0  0  0  0  0  0  0  0  0  0
    2.4691    0.5052   -1.1720 O   0  0  0  0  0  0  0  0  0  0  0  0
    2.1615    0.1966    0.3366 P   0  0  0  0  0  0  0  0  0  0  0  0
    1.3245    1.7333    1.2098 S   0  0  0  0  0  0  0  0  0  0  0  0
    3.6250   -0.2042    0.8377 O   0  0  0  0  0  0  0  0  0  0  0  0
    3.9353   -0.9119    2.0508 C   0  0  0  0  0  0  0  0  0  0  0  0
    3.4868   -0.1720    3.2943 C   0  0  0  0  0  0  0  0  0  0  0  0
    1.1119   -1.6550    0.4546 S   0  0  0  0  0  0  0  0  0  0  0  0
   -0.2977   -1.1617    1.4988 C   0  0  0  0  0  0  0  0  0  0  0  0
   -1.9097   -1.4062    0.7194 S   0  0  0  0  0  0  0  0  0  0  0  0
   -1.9456    0.3167   -0.5311 P   0  0  0  0  0  0  0  0  0  0  0  0
   -0.6042    0.3675   -1.9570 S   0  0  0  0  0  0  0  0  0  0  0  0
   -1.8305    1.5644    0.4253 O   0  0  0  0  0  0  0  0  0  0  0  0
   -2.9034    2.1679    1.1891 C   0  0  0  0  0  0  0  0  0  0  0  0
   -3.4739    1.2401    2.2408 C   0  0  0  0  0  0  0  0  0  0  0  0
   -3.4517    0.3871   -1.0304 O   0  0  0  0  0  0  0  0  0  0  0  0
   -3.9053   -0.3045   -2.2081 C   0  0  0  0  0  0  0  0  0  0  0  0
   -3.8416   -1.8091   -2.0475 C   0  0  0  0  0  0  0  0  0  0  0  0
    3.2305   -0.7009   -4.1888 H   0  0  0  0  0  0  0  0  0  0  0  0
    1.7475    0.1217   -3.6669 H   0  0  0  0  0  0  0  0  0  0  0  0
    3.2881    0.9844   -3.6346 H   0  0  0  0  0  0  0  0  0  0  0  0
    4.1133   -0.5495   -1.8414 H   0  0  0  0  0  0  0  0  0  0  0  0
    2.5625   -1.4346   -1.9050 H   0  0  0  0  0  0  0  0  0  0  0  0
    3.4724   -1.9018    1.9979 H   0  0  0  0  0  0  0  0  0  0  0  0
    5.0218   -1.0097    2.0168 H   0  0  0  0  0  0  0  0  0  0  0  0
    3.9019    0.8327    3.3065 H   0  0  0  0  0  0  0  0  0  0  0  0
    2.4014   -0.0910    3.3157 H   0  0  0  0  0  0  0  0  0  0  0  0
    3.8218   -0.7119    4.1740 H   0  0  0  0  0  0  0  0  0  0  0  0
   -0.1695   -0.1073    1.7647 H   0  0  0  0  0  0  0  0  0  0  0  0
   -0.2954   -1.8030    2.3761 H   0  0  0  0  0  0  0  0  0  0  0  0
   -2.4196    3.0371    1.6384 H   0  0  0  0  0  0  0  0  0  0  0  0
   -3.6768    2.4898    0.4893 H   0  0  0  0  0  0  0  0  0  0  0  0
   -3.9636    0.3891    1.7728 H   0  0  0  0  0  0  0  0  0  0  0  0
   -2.6862    0.8810    2.8986 H   0  0  0  0  0  0  0  0  0  0  0  0
   -4.2029    1.7886    2.8291 H   0  0  0  0  0  0  0  0  0  0  0  0
   -4.9302    0.0469   -2.3348 H   0  0  0  0  0  0  0  0  0  0  0  0
   -3.2916    0.0181   -3.0550 H   0  0  0  0  0  0  0  0  0  0  0  0
   -2.8031   -2.1312   -1.9836 H   0  0  0  0  0  0  0  0  0  0  0  0
   -4.3605   -2.1180   -1.1436 H   0  0  0  0  0  0  0  0  0  0  0  0
   -4.3029   -2.2811   -2.9090 H   0  0  0  0  0  0  0  0  0  0  0  0
  1  2  1  0  0  0  0
  2  3  1  0  0  0  0
  3  4  2  0  0  0  0
  4  5  2  0  0  0  0
  4  6  2  0  0  0  0
  6  7  1  0  0  0  0
  7  8  1  0  0  0  0
  4  9  1  0  0  0  0
  9 10  1  0  0  0  0
 10 11  1  0  0  0  0
 11 12  1  0  0  0  0
 12 13  2  0  0  0  0
 12 14  2  0  0  0  0
 14 15  1  0  0  0  0
 15 16  1  0  0  0  0
 12 17  2  0  0  0  0
 17 18  1  0  0  0  0
 18 19  1  0  0  0  0
  1 20  1  0  0  0  0
  1 21  1  0  0  0  0
  1 22  1  0  0  0  0
  2 23  1  0  0  0  0
  2 24  1  0  0  0  0
  7 25  1  0  0  0  0
  7 26  1  0  0  0  0
  8 27  1  0  0  0  0
  8 28  1  0  0  0  0
  8 29  1  0  0  0  0
 10 30  1  0  0  0  0
 10 31  1  0  0  0  0
 15 32  1  0  0  0  0
 15 33  1  0  0  0  0
 16 34  1  0  0  0  0
 16 35  1  0  0  0  0
 16 36  1  0  0  0  0
 18 37  1  0  0  0  0
 18 38  1  0  0  0  0
 19 39  1  0  0  0  0
 19 40  1  0  0  0  0
 19 41  1  0  0  0  0
M  END
