 xtb: 6.7.1 (edcfbbe)
          04092505213D

 41 40  0     0  0            999 V2000
    5.2255   -2.4787   -0.9928 C   0  0  0  0  0  0  0  0  0  0  0  0
    4.1369   -1.4912   -1.3604 C   0  0  0  0  0  0  0  0  0  0  0  0
    3.3777   -1.2062   -0.1658 O   0  0  0  0  0  0  0  0  0  0  0  0
    2.3989    0.0408   -0.0969 P   0  0  0  0  0  0  0  0  0  0  0  0
    3.1771    1.7739   -0.5540 S   0  0  0  0  0  0  0  0  0  0  0  0
    1.8711   -0.0085    1.3829 O   0  0  0  0  0  0  0  0  0  0  0  0
    1.3511   -1.2148    1.9967 C   0  0  0  0  0  0  0  0  0  0  0  0
    2.3995   -1.8433    2.8905 C   0  0  0  0  0  0  0  0  0  0  0  0
    0.7816   -0.5814   -1.3529 S   0  0  0  0  0  0  0  0  0  0  0  0
    0.0566    1.0600   -1.5393 C   0  0  0  0  0  0  0  0  0  0  0  0
   -0.6343    1.6965    0.0135 S   0  0  0  0  0  0  0  0  0  0  0  0
   -2.3571    0.4802    0.0054 P   0  0  0  0  0  0  0  0  0  0  0  0
   -3.2391    0.2402   -1.7332 S   0  0  0  0  0  0  0  0  0  0  0  0
   -3.2794    1.1133    1.1332 O   0  0  0  0  0  0  0  0  0  0  0  0
   -4.1260    2.2549    0.8882 C   0  0  0  0  0  0  0  0  0  0  0  0
   -5.2875    2.1944    1.8599 C   0  0  0  0  0  0  0  0  0  0  0  0
   -1.8419   -0.8329    0.7168 O   0  0  0  0  0  0  0  0  0  0  0  0
   -2.5745   -2.0822    0.6269 C   0  0  0  0  0  0  0  0  0  0  0  0
   -1.5914   -3.2203    0.4461 C   0  0  0  0  0  0  0  0  0  0  0  0
    4.7848   -3.3908   -0.6013 H   0  0  0  0  0  0  0  0  0  0  0  0
    5.8062   -2.7125   -1.8789 H   0  0  0  0  0  0  0  0  0  0  0  0
    5.8802   -2.0495   -0.2396 H   0  0  0  0  0  0  0  0  0  0  0  0
    3.4539   -1.9054   -2.1068 H   0  0  0  0  0  0  0  0  0  0  0  0
    4.5550   -0.5526   -1.7382 H   0  0  0  0  0  0  0  0  0  0  0  0
    0.4792   -0.8826    2.5643 H   0  0  0  0  0  0  0  0  0  0  0  0
    1.0365   -1.9029    1.2078 H   0  0  0  0  0  0  0  0  0  0  0  0
    1.9710   -2.7051    3.3926 H   0  0  0  0  0  0  0  0  0  0  0  0
    3.2545   -2.1588    2.2985 H   0  0  0  0  0  0  0  0  0  0  0  0
    2.7338   -1.1242    3.6333 H   0  0  0  0  0  0  0  0  0  0  0  0
   -0.7356    0.9820   -2.2846 H   0  0  0  0  0  0  0  0  0  0  0  0
    0.8314    1.7624   -1.8475 H   0  0  0  0  0  0  0  0  0  0  0  0
   -3.5262    3.1565    1.0360 H   0  0  0  0  0  0  0  0  0  0  0  0
   -4.4713    2.2185   -0.1506 H   0  0  0  0  0  0  0  0  0  0  0  0
   -5.9180    3.0654    1.7146 H   0  0  0  0  0  0  0  0  0  0  0  0
   -5.8729    1.2955    1.6878 H   0  0  0  0  0  0  0  0  0  0  0  0
   -4.9162    2.1843    2.8805 H   0  0  0  0  0  0  0  0  0  0  0  0
   -3.1456   -2.1846    1.5514 H   0  0  0  0  0  0  0  0  0  0  0  0
   -3.2641   -2.0217   -0.2218 H   0  0  0  0  0  0  0  0  0  0  0  0
   -0.9865   -3.0515   -0.4418 H   0  0  0  0  0  0  0  0  0  0  0  0
   -0.9421   -3.3001    1.3128 H   0  0  0  0  0  0  0  0  0  0  0  0
   -2.1454   -4.1461    0.3277 H   0  0  0  0  0  0  0  0  0  0  0  0
  1  2  1  0  0  0  0
  2  3  1  0  0  0  0
  3  4  2  0  0  0  0
  4  5  2  0  0  0  0
  4  6  2  0  0  0  0
  6  7  1  0  0  0  0
  7  8  1  0  0  0  0
  4  9  1  0  0  0  0
  9 10  1  0  0  0  0
 10 11  1  0  0  0  0
 11 12  1  0  0  0  0
 12 13  2  0  0  0  0
 12 14  2  0  0  0  0
 14 15  1  0  0  0  0
 15 16  1  0  0  0  0
 12 17  2  0  0  0  0
 17 18  1  0  0  0  0
 18 19  1  0  0  0  0
  1 20  1  0  0  0  0
  1 21  1  0  0  0  0
  1 22  1  0  0  0  0
  2 23  1  0  0  0  0
  2 24  1  0  0  0  0
  7 25  1  0  0  0  0
  7 26  1  0  0  0  0
  8 27  1  0  0  0  0
  8 28  1  0  0  0  0
  8 29  1  0  0  0  0
 10 30  1  0  0  0  0
 10 31  1  0  0  0  0
 15 32  1  0  0  0  0
 15 33  1  0  0  0  0
 16 34  1  0  0  0  0
 16 35  1  0  0  0  0
 16 36  1  0  0  0  0
 18 37  1  0  0  0  0
 18 38  1  0  0  0  0
 19 39  1  0  0  0  0
 19 40  1  0  0  0  0
 19 41  1  0  0  0  0
M  END
