 xtb: 6.7.1 (edcfbbe)
          04092505213D

 41 40  0     0  0            999 V2000
    4.7528   -0.6274   -2.2212 C   0  0  0  0  0  0  0  0  0  0  0  0
    4.0416   -1.7129   -1.4411 C   0  0  0  0  0  0  0  0  0  0  0  0
    3.5311   -1.2483   -0.1773 O   0  0  0  0  0  0  0  0  0  0  0  0
    2.5570   -0.0080    0.0243 P   0  0  0  0  0  0  0  0  0  0  0  0
    3.2965    1.7992   -0.0696 S   0  0  0  0  0  0  0  0  0  0  0  0
    2.0186   -0.2755    1.4798 O   0  0  0  0  0  0  0  0  0  0  0  0
    1.4489   -1.5361    1.9132 C   0  0  0  0  0  0  0  0  0  0  0  0
    0.6235   -1.2605    3.1529 C   0  0  0  0  0  0  0  0  0  0  0  0
    0.9702   -0.4311   -1.3453 S   0  0  0  0  0  0  0  0  0  0  0  0
    0.2127    1.2060   -1.2534 C   0  0  0  0  0  0  0  0  0  0  0  0
   -0.6067    1.5033    0.3292 S   0  0  0  0  0  0  0  0  0  0  0  0
   -2.2279    0.1670    0.0027 P   0  0  0  0  0  0  0  0  0  0  0  0
   -2.8684    0.0959   -1.8557 S   0  0  0  0  0  0  0  0  0  0  0  0
   -3.2747    0.5379    1.1383 O   0  0  0  0  0  0  0  0  0  0  0  0
   -3.7959    1.8525    1.4102 C   0  0  0  0  0  0  0  0  0  0  0  0
   -4.3013    2.5620    0.1722 C   0  0  0  0  0  0  0  0  0  0  0  0
   -1.6443   -1.2019    0.5514 O   0  0  0  0  0  0  0  0  0  0  0  0
   -2.4413   -2.2299    1.1836 C   0  0  0  0  0  0  0  0  0  0  0  0
   -3.5560   -2.7232    0.2862 C   0  0  0  0  0  0  0  0  0  0  0  0
    5.1881   -1.0544   -3.1190 H   0  0  0  0  0  0  0  0  0  0  0  0
    4.0496    0.1545   -2.5045 H   0  0  0  0  0  0  0  0  0  0  0  0
    5.5378   -0.1787   -1.6170 H   0  0  0  0  0  0  0  0  0  0  0  0
    4.7250   -2.5163   -1.1604 H   0  0  0  0  0  0  0  0  0  0  0  0
    3.2057   -2.1193   -2.0175 H   0  0  0  0  0  0  0  0  0  0  0  0
    0.8348   -1.9395    1.1021 H   0  0  0  0  0  0  0  0  0  0  0  0
    2.2738   -2.2207    2.1191 H   0  0  0  0  0  0  0  0  0  0  0  0
    1.2437   -0.7931    3.9123 H   0  0  0  0  0  0  0  0  0  0  0  0
   -0.1967   -0.5885    2.9132 H   0  0  0  0  0  0  0  0  0  0  0  0
    0.2256   -2.1950    3.5352 H   0  0  0  0  0  0  0  0  0  0  0  0
   -0.5218    1.2583   -2.0582 H   0  0  0  0  0  0  0  0  0  0  0  0
    0.9853    1.9687   -1.3577 H   0  0  0  0  0  0  0  0  0  0  0  0
   -4.6040    1.6649    2.1198 H   0  0  0  0  0  0  0  0  0  0  0  0
   -3.0056    2.4346    1.8922 H   0  0  0  0  0  0  0  0  0  0  0  0
   -4.7570    3.5042    0.4595 H   0  0  0  0  0  0  0  0  0  0  0  0
   -3.4763    2.7624   -0.5102 H   0  0  0  0  0  0  0  0  0  0  0  0
   -5.0356    1.9503   -0.3468 H   0  0  0  0  0  0  0  0  0  0  0  0
   -1.7183   -3.0196    1.3938 H   0  0  0  0  0  0  0  0  0  0  0  0
   -2.8408   -1.8292    2.1175 H   0  0  0  0  0  0  0  0  0  0  0  0
   -4.0828   -3.5361    0.7761 H   0  0  0  0  0  0  0  0  0  0  0  0
   -4.2567   -1.9139    0.0837 H   0  0  0  0  0  0  0  0  0  0  0  0
   -3.1532   -3.0728   -0.6618 H   0  0  0  0  0  0  0  0  0  0  0  0
  1  2  1  0  0  0  0
  2  3  1  0  0  0  0
  3  4  2  0  0  0  0
  4  5  2  0  0  0  0
  4  6  2  0  0  0  0
  6  7  1  0  0  0  0
  7  8  1  0  0  0  0
  4  9  1  0  0  0  0
  9 10  1  0  0  0  0
 10 11  1  0  0  0  0
 11 12  1  0  0  0  0
 12 13  2  0  0  0  0
 12 14  2  0  0  0  0
 14 15  1  0  0  0  0
 15 16  1  0  0  0  0
 12 17  2  0  0  0  0
 17 18  1  0  0  0  0
 18 19  1  0  0  0  0
  1 20  1  0  0  0  0
  1 21  1  0  0  0  0
  1 22  1  0  0  0  0
  2 23  1  0  0  0  0
  2 24  1  0  0  0  0
  7 25  1  0  0  0  0
  7 26  1  0  0  0  0
  8 27  1  0  0  0  0
  8 28  1  0  0  0  0
  8 29  1  0  0  0  0
 10 30  1  0  0  0  0
 10 31  1  0  0  0  0
 15 32  1  0  0  0  0
 15 33  1  0  0  0  0
 16 34  1  0  0  0  0
 16 35  1  0  0  0  0
 16 36  1  0  0  0  0
 18 37  1  0  0  0  0
 18 38  1  0  0  0  0
 19 39  1  0  0  0  0
 19 40  1  0  0  0  0
 19 41  1  0  0  0  0
M  END
