 xtb: 6.7.1 (edcfbbe)
          04092507313D

 38 37  0     0  0            999 V2000
    5.2561   -2.0411   -1.4720 C   0  0  0  0  0  0  0  0  0  0  0  0
    4.5501   -0.7286   -1.1708 C   0  0  0  0  0  0  0  0  0  0  0  0
    3.1200   -0.8801   -1.2484 O   0  0  0  0  0  0  0  0  0  0  0  0
    2.4784   -1.3150   -0.1798 C   0  0  0  0  0  0  0  0  0  0  0  0
    3.0053   -1.5962    0.8716 O   0  0  0  0  0  0  0  0  0  0  0  0
    0.9867   -1.4373   -0.4396 C   0  0  0  0  0  0  0  0  0  0  0  0
    0.4246   -0.1314   -1.0008 C   0  0  0  0  0  0  0  0  0  0  0  0
    0.9557    0.1312   -1.9203 H   0  0  0  0  0  0  0  0  0  0  0  0
    0.5580    1.0108   -0.0131 C   0  0  0  0  0  0  0  0  0  0  0  0
   -0.3915    1.6699    0.3604 O   0  0  0  0  0  0  0  0  0  0  0  0
    1.7938    1.1818    0.3734 O   0  0  0  0  0  0  0  0  0  0  0  0
    2.0690    2.2140    1.3465 C   0  0  0  0  0  0  0  0  0  0  0  0
    2.2523    3.5626    0.6713 C   0  0  0  0  0  0  0  0  0  0  0  0
   -1.3240   -0.2780   -1.4805 S   0  0  0  0  0  0  0  0  0  0  0  0
   -2.3513    0.0020    0.3647 P   0  0  0  0  0  0  0  0  0  0  0  0
   -1.5165   -0.5610    2.0484 S   0  0  0  0  0  0  0  0  0  0  0  0
   -3.0420    1.4216    0.4155 O   0  0  0  0  0  0  0  0  0  0  0  0
   -3.8115    1.9492   -0.6823 C   0  0  0  0  0  0  0  0  0  0  0  0
   -3.6577   -0.8819    0.0361 O   0  0  0  0  0  0  0  0  0  0  0  0
   -3.6035   -2.3086   -0.0237 C   0  0  0  0  0  0  0  0  0  0  0  0
    5.0117   -2.7793   -0.7115 H   0  0  0  0  0  0  0  0  0  0  0  0
    4.9491   -2.4175   -2.4438 H   0  0  0  0  0  0  0  0  0  0  0  0
    6.3290   -1.8795   -1.4731 H   0  0  0  0  0  0  0  0  0  0  0  0
    4.7843    0.0290   -1.9186 H   0  0  0  0  0  0  0  0  0  0  0  0
    4.8077   -0.3716   -0.1699 H   0  0  0  0  0  0  0  0  0  0  0  0
    0.4954   -1.7049    0.4986 H   0  0  0  0  0  0  0  0  0  0  0  0
    0.8271   -2.2305   -1.1718 H   0  0  0  0  0  0  0  0  0  0  0  0
    1.2432    2.2399    2.0633 H   0  0  0  0  0  0  0  0  0  0  0  0
    2.9822    1.8784    1.8383 H   0  0  0  0  0  0  0  0  0  0  0  0
    1.3245    3.8727    0.1959 H   0  0  0  0  0  0  0  0  0  0  0  0
    2.5257    4.2982    1.4203 H   0  0  0  0  0  0  0  0  0  0  0  0
    3.0366    3.5044   -0.0780 H   0  0  0  0  0  0  0  0  0  0  0  0
   -4.1142    2.9422   -0.3603 H   0  0  0  0  0  0  0  0  0  0  0  0
   -4.6785    1.3169   -0.8656 H   0  0  0  0  0  0  0  0  0  0  0  0
   -3.1920    2.0071   -1.5772 H   0  0  0  0  0  0  0  0  0  0  0  0
   -3.1169   -2.6223   -0.9471 H   0  0  0  0  0  0  0  0  0  0  0  0
   -4.6374   -2.6435   -0.0020 H   0  0  0  0  0  0  0  0  0  0  0  0
   -3.0598   -2.6993    0.8383 H   0  0  0  0  0  0  0  0  0  0  0  0
  1  2  1  0  0  0  0
  2  3  1  0  0  0  0
  3  4  1  0  0  0  0
  4  5  2  0  0  0  0
  4  6  1  0  0  0  0
  6  7  1  0  0  0  0
  7  8  1  0  0  0  0
  7  9  1  0  0  0  0
  9 10  2  0  0  0  0
  9 11  4  0  0  0  0
 11 12  1  0  0  0  0
 12 13  1  0  0  0  0
  7 14  1  0  0  0  0
 14 15  1  0  0  0  0
 15 16  2  0  0  0  0
 15 17  2  0  0  0  0
 17 18  1  0  0  0  0
 15 19  1  0  0  0  0
 19 20  1  0  0  0  0
  1 21  1  0  0  0  0
  1 22  1  0  0  0  0
  1 23  1  0  0  0  0
  2 24  1  0  0  0  0
  2 25  1  0  0  0  0
  6 26  1  0  0  0  0
  6 27  1  0  0  0  0
 12 28  1  0  0  0  0
 12 29  1  0  0  0  0
 13 30  1  0  0  0  0
 13 31  1  0  0  0  0
 13 32  1  0  0  0  0
 18 33  1  0  0  0  0
 18 34  1  0  0  0  0
 18 35  1  0  0  0  0
 20 36  1  0  0  0  0
 20 37  1  0  0  0  0
 20 38  1  0  0  0  0
M  END
