 xtb: 6.7.1 (edcfbbe)
          04092507313D

 38 37  0     0  0            999 V2000
    3.4861   -3.0390    0.5350 C   0  0  0  0  0  0  0  0  0  0  0  0
    2.8812   -1.7256    1.0034 C   0  0  0  0  0  0  0  0  0  0  0  0
    2.6621   -0.8315   -0.1046 O   0  0  0  0  0  0  0  0  0  0  0  0
    1.5857   -0.9884   -0.8452 C   0  0  0  0  0  0  0  0  0  0  0  0
    0.7247   -1.8237   -0.6538 O   0  0  0  0  0  0  0  0  0  0  0  0
    1.5248    0.0253   -1.9698 C   0  0  0  0  0  0  0  0  0  0  0  0
    0.2948    0.9230   -1.8075 C   0  0  0  0  0  0  0  0  0  0  0  0
    0.2274    1.6057   -2.6592 H   0  0  0  0  0  0  0  0  0  0  0  0
    0.3379    1.7398   -0.5324 C   0  0  0  0  0  0  0  0  0  0  0  0
   -0.6304    1.8581    0.1986 O   0  0  0  0  0  0  0  0  0  0  0  0
    1.5008    2.2759   -0.3121 O   0  0  0  0  0  0  0  0  0  0  0  0
    1.6866    3.0232    0.9116 C   0  0  0  0  0  0  0  0  0  0  0  0
    3.1634    3.3363    1.0368 C   0  0  0  0  0  0  0  0  0  0  0  0
   -1.2800   -0.0057   -1.8292 S   0  0  0  0  0  0  0  0  0  0  0  0
   -1.7513   -0.3580    0.2164 P   0  0  0  0  0  0  0  0  0  0  0  0
   -0.5633   -0.5430    1.7805 S   0  0  0  0  0  0  0  0  0  0  0  0
   -3.0420    0.5382    0.4672 O   0  0  0  0  0  0  0  0  0  0  0  0
   -3.1541    1.5794    1.4360 C   0  0  0  0  0  0  0  0  0  0  0  0
   -2.6114   -1.6945   -0.0029 O   0  0  0  0  0  0  0  0  0  0  0  0
   -2.0339   -2.9790   -0.2311 C   0  0  0  0  0  0  0  0  0  0  0  0
    3.7003   -3.6596    1.3987 H   0  0  0  0  0  0  0  0  0  0  0  0
    2.7867   -3.5649   -0.1110 H   0  0  0  0  0  0  0  0  0  0  0  0
    4.4063   -2.8528   -0.0121 H   0  0  0  0  0  0  0  0  0  0  0  0
    3.5643   -1.1826    1.6561 H   0  0  0  0  0  0  0  0  0  0  0  0
    1.9283   -1.8881    1.5160 H   0  0  0  0  0  0  0  0  0  0  0  0
    1.4353   -0.5138   -2.9131 H   0  0  0  0  0  0  0  0  0  0  0  0
    2.4283    0.6333   -1.9563 H   0  0  0  0  0  0  0  0  0  0  0  0
    1.0790    3.9306    0.8522 H   0  0  0  0  0  0  0  0  0  0  0  0
    1.3210    2.4122    1.7430 H   0  0  0  0  0  0  0  0  0  0  0  0
    3.7373    2.4151    1.0706 H   0  0  0  0  0  0  0  0  0  0  0  0
    3.4923    3.9270    0.1875 H   0  0  0  0  0  0  0  0  0  0  0  0
    3.3322    3.8958    1.9506 H   0  0  0  0  0  0  0  0  0  0  0  0
   -2.9699    2.5387    0.9553 H   0  0  0  0  0  0  0  0  0  0  0  0
   -2.4325    1.4292    2.2414 H   0  0  0  0  0  0  0  0  0  0  0  0
   -4.1700    1.5244    1.8207 H   0  0  0  0  0  0  0  0  0  0  0  0
   -1.5838   -3.0222   -1.2226 H   0  0  0  0  0  0  0  0  0  0  0  0
   -2.8555   -3.6858   -0.1467 H   0  0  0  0  0  0  0  0  0  0  0  0
   -1.2686   -3.1859    0.5184 H   0  0  0  0  0  0  0  0  0  0  0  0
  1  2  1  0  0  0  0
  2  3  1  0  0  0  0
  3  4  4  0  0  0  0
  4  5  2  0  0  0  0
  4  6  1  0  0  0  0
  6  7  1  0  0  0  0
  7  8  1  0  0  0  0
  7  9  1  0  0  0  0
  9 10  2  0  0  0  0
  9 11  4  0  0  0  0
 11 12  1  0  0  0  0
 12 13  1  0  0  0  0
  7 14  1  0  0  0  0
 14 15  1  0  0  0  0
 15 16  2  0  0  0  0
 15 17  1  0  0  0  0
 17 18  1  0  0  0  0
 15 19  1  0  0  0  0
 19 20  1  0  0  0  0
  1 21  1  0  0  0  0
  1 22  1  0  0  0  0
  1 23  1  0  0  0  0
  2 24  1  0  0  0  0
  2 25  1  0  0  0  0
  6 26  1  0  0  0  0
  6 27  1  0  0  0  0
 12 28  1  0  0  0  0
 12 29  1  0  0  0  0
 13 30  1  0  0  0  0
 13 31  1  0  0  0  0
 13 32  1  0  0  0  0
 18 33  1  0  0  0  0
 18 34  1  0  0  0  0
 18 35  1  0  0  0  0
 20 36  1  0  0  0  0
 20 37  1  0  0  0  0
 20 38  1  0  0  0  0
M  END
