 xtb: 6.7.1 (edcfbbe)
          04092505203D

 41 40  0     0  0            999 V2000
    5.4288   -0.2130   -0.8869 C   0  0  0  0  0  0  0  0  0  0  0  0
    4.4470   -0.9388    0.0125 C   0  0  0  0  0  0  0  0  0  0  0  0
    3.4438   -0.0334    0.5139 O   0  0  0  0  0  0  0  0  0  0  0  0
    2.0203    0.1245   -0.1799 P   0  0  0  0  0  0  0  0  0  0  0  0
    2.0357    0.4650   -2.1139 S   0  0  0  0  0  0  0  0  0  0  0  0
    1.3635    1.2141    0.7591 O   0  0  0  0  0  0  0  0  0  0  0  0
    1.4528    2.6245    0.4805 C   0  0  0  0  0  0  0  0  0  0  0  0
    2.8750    3.1297    0.5862 C   0  0  0  0  0  0  0  0  0  0  0  0
    1.0708   -1.6460    0.4436 S   0  0  0  0  0  0  0  0  0  0  0  0
   -0.1569   -1.8909   -0.8891 C   0  0  0  0  0  0  0  0  0  0  0  0
   -1.8512   -1.9423   -0.2716 S   0  0  0  0  0  0  0  0  0  0  0  0
   -2.0570    0.1215    0.1953 P   0  0  0  0  0  0  0  0  0  0  0  0
   -1.3391    1.3733   -1.1292 S   0  0  0  0  0  0  0  0  0  0  0  0
   -1.3959    0.3382    1.6097 O   0  0  0  0  0  0  0  0  0  0  0  0
   -1.4520   -0.5595    2.7473 C   0  0  0  0  0  0  0  0  0  0  0  0
   -2.8649   -0.9236    3.1460 C   0  0  0  0  0  0  0  0  0  0  0  0
   -3.6059    0.3049    0.4919 O   0  0  0  0  0  0  0  0  0  0  0  0
   -4.5649    0.6028   -0.5372 C   0  0  0  0  0  0  0  0  0  0  0  0
   -4.7446   -0.5460   -1.5086 C   0  0  0  0  0  0  0  0  0  0  0  0
    5.8840    0.6159   -0.3521 H   0  0  0  0  0  0  0  0  0  0  0  0
    6.2024   -0.9050   -1.2032 H   0  0  0  0  0  0  0  0  0  0  0  0
    4.9175    0.1725   -1.7665 H   0  0  0  0  0  0  0  0  0  0  0  0
    4.9377   -1.3286    0.9061 H   0  0  0  0  0  0  0  0  0  0  0  0
    3.9596   -1.7587   -0.5230 H   0  0  0  0  0  0  0  0  0  0  0  0
    1.0435    2.8069   -0.5192 H   0  0  0  0  0  0  0  0  0  0  0  0
    0.7964    3.0768    1.2257 H   0  0  0  0  0  0  0  0  0  0  0  0
    3.2948    2.8672    1.5538 H   0  0  0  0  0  0  0  0  0  0  0  0
    3.4831    2.6796   -0.1977 H   0  0  0  0  0  0  0  0  0  0  0  0
    2.8823    4.2084    0.4644 H   0  0  0  0  0  0  0  0  0  0  0  0
    0.0309   -2.8600   -1.3438 H   0  0  0  0  0  0  0  0  0  0  0  0
   -0.0439   -1.0832   -1.6181 H   0  0  0  0  0  0  0  0  0  0  0  0
   -0.8699   -1.4538    2.5059 H   0  0  0  0  0  0  0  0  0  0  0  0
   -0.9421    0.0060    3.5288 H   0  0  0  0  0  0  0  0  0  0  0  0
   -3.3356   -1.5199    2.3672 H   0  0  0  0  0  0  0  0  0  0  0  0
   -2.8312   -1.5031    4.0635 H   0  0  0  0  0  0  0  0  0  0  0  0
   -3.4552   -0.0255    3.3079 H   0  0  0  0  0  0  0  0  0  0  0  0
   -5.4817    0.8092    0.0166 H   0  0  0  0  0  0  0  0  0  0  0  0
   -4.2377    1.5044   -1.0647 H   0  0  0  0  0  0  0  0  0  0  0  0
   -5.5736   -0.3251   -2.1732 H   0  0  0  0  0  0  0  0  0  0  0  0
   -3.8425   -0.6760   -2.1043 H   0  0  0  0  0  0  0  0  0  0  0  0
   -4.9474   -1.4691   -0.9718 H   0  0  0  0  0  0  0  0  0  0  0  0
  1  2  1  0  0  0  0
  2  3  1  0  0  0  0
  3  4  2  0  0  0  0
  4  5  2  0  0  0  0
  4  6  2  0  0  0  0
  6  7  1  0  0  0  0
  7  8  1  0  0  0  0
  4  9  1  0  0  0  0
  9 10  1  0  0  0  0
 10 11  1  0  0  0  0
 11 12  1  0  0  0  0
 12 13  2  0  0  0  0
 12 14  2  0  0  0  0
 14 15  1  0  0  0  0
 15 16  1  0  0  0  0
 12 17  2  0  0  0  0
 17 18  1  0  0  0  0
 18 19  1  0  0  0  0
  1 20  1  0  0  0  0
  1 21  1  0  0  0  0
  1 22  1  0  0  0  0
  2 23  1  0  0  0  0
  2 24  1  0  0  0  0
  7 25  1  0  0  0  0
  7 26  1  0  0  0  0
  8 27  1  0  0  0  0
  8 28  1  0  0  0  0
  8 29  1  0  0  0  0
 10 30  1  0  0  0  0
 10 31  1  0  0  0  0
 15 32  1  0  0  0  0
 15 33  1  0  0  0  0
 16 34  1  0  0  0  0
 16 35  1  0  0  0  0
 16 36  1  0  0  0  0
 18 37  1  0  0  0  0
 18 38  1  0  0  0  0
 19 39  1  0  0  0  0
 19 40  1  0  0  0  0
 19 41  1  0  0  0  0
M  END
