 xtb: 6.7.1 (edcfbbe)
          04092505213D

 41 40  0     0  0            999 V2000
    2.9074   -2.3993    1.7776 C   0  0  0  0  0  0  0  0  0  0  0  0
    1.6240   -1.9096    1.1375 C   0  0  0  0  0  0  0  0  0  0  0  0
    1.6833   -0.4912    0.9196 O   0  0  0  0  0  0  0  0  0  0  0  0
    2.2223    0.1880   -0.4225 P   0  0  0  0  0  0  0  0  0  0  0  0
    2.7928   -1.0363   -1.8308 S   0  0  0  0  0  0  0  0  0  0  0  0
    3.3978    1.1453    0.0202 O   0  0  0  0  0  0  0  0  0  0  0  0
    3.2787    2.2372    0.9649 C   0  0  0  0  0  0  0  0  0  0  0  0
    3.5373    1.7687    2.3825 C   0  0  0  0  0  0  0  0  0  0  0  0
    0.6585    1.5559   -0.8927 S   0  0  0  0  0  0  0  0  0  0  0  0
   -0.2463    0.4597   -2.0107 C   0  0  0  0  0  0  0  0  0  0  0  0
   -0.7918   -1.0740   -1.2191 S   0  0  0  0  0  0  0  0  0  0  0  0
   -2.2148   -0.2131    0.0873 P   0  0  0  0  0  0  0  0  0  0  0  0
   -3.1793    1.3770   -0.5448 S   0  0  0  0  0  0  0  0  0  0  0  0
   -1.3820    0.0073    1.4155 O   0  0  0  0  0  0  0  0  0  0  0  0
   -1.6991    1.0106    2.4070 C   0  0  0  0  0  0  0  0  0  0  0  0
   -0.6094    2.0628    2.4540 C   0  0  0  0  0  0  0  0  0  0  0  0
   -3.0929   -1.4624    0.5318 O   0  0  0  0  0  0  0  0  0  0  0  0
   -3.7467   -2.3973   -0.3462 C   0  0  0  0  0  0  0  0  0  0  0  0
   -4.5788   -1.7244   -1.4179 C   0  0  0  0  0  0  0  0  0  0  0  0
    3.0859   -1.8832    2.7169 H   0  0  0  0  0  0  0  0  0  0  0  0
    2.8324   -3.4662    1.9612 H   0  0  0  0  0  0  0  0  0  0  0  0
    3.7439   -2.2122    1.1058 H   0  0  0  0  0  0  0  0  0  0  0  0
    0.7578   -2.0566    1.7858 H   0  0  0  0  0  0  0  0  0  0  0  0
    1.4546   -2.4137    0.1805 H   0  0  0  0  0  0  0  0  0  0  0  0
    4.0357    2.9522    0.6379 H   0  0  0  0  0  0  0  0  0  0  0  0
    2.2860    2.6844    0.8652 H   0  0  0  0  0  0  0  0  0  0  0  0
    3.5033    2.6244    3.0496 H   0  0  0  0  0  0  0  0  0  0  0  0
    2.7840    1.0471    2.6873 H   0  0  0  0  0  0  0  0  0  0  0  0
    4.5163    1.3015    2.4470 H   0  0  0  0  0  0  0  0  0  0  0  0
    0.3977    0.1640   -2.8381 H   0  0  0  0  0  0  0  0  0  0  0  0
   -1.1133    1.0232   -2.3561 H   0  0  0  0  0  0  0  0  0  0  0  0
   -2.6661    1.4615    2.1652 H   0  0  0  0  0  0  0  0  0  0  0  0
   -1.7733    0.4681    3.3510 H   0  0  0  0  0  0  0  0  0  0  0  0
   -0.6042    2.6396    1.5318 H   0  0  0  0  0  0  0  0  0  0  0  0
   -0.7925    2.7286    3.2909 H   0  0  0  0  0  0  0  0  0  0  0  0
    0.3590    1.5855    2.5763 H   0  0  0  0  0  0  0  0  0  0  0  0
   -2.9782   -3.0330   -0.7951 H   0  0  0  0  0  0  0  0  0  0  0  0
   -4.3686   -2.9891    0.3280 H   0  0  0  0  0  0  0  0  0  0  0  0
   -5.1160   -2.4796   -1.9827 H   0  0  0  0  0  0  0  0  0  0  0  0
   -5.2910   -1.0353   -0.9701 H   0  0  0  0  0  0  0  0  0  0  0  0
   -3.9373   -1.1645   -2.0972 H   0  0  0  0  0  0  0  0  0  0  0  0
  1  2  1  0  0  0  0
  2  3  1  0  0  0  0
  3  4  1  0  0  0  0
  4  5  2  0  0  0  0
  4  6  2  0  0  0  0
  6  7  1  0  0  0  0
  7  8  1  0  0  0  0
  4  9  1  0  0  0  0
  9 10  1  0  0  0  0
 10 11  1  0  0  0  0
 11 12  1  0  0  0  0
 12 13  2  0  0  0  0
 12 14  2  0  0  0  0
 14 15  1  0  0  0  0
 15 16  1  0  0  0  0
 12 17  2  0  0  0  0
 17 18  1  0  0  0  0
 18 19  1  0  0  0  0
  1 20  1  0  0  0  0
  1 21  1  0  0  0  0
  1 22  1  0  0  0  0
  2 23  1  0  0  0  0
  2 24  1  0  0  0  0
  7 25  1  0  0  0  0
  7 26  1  0  0  0  0
  8 27  1  0  0  0  0
  8 28  1  0  0  0  0
  8 29  1  0  0  0  0
 10 30  1  0  0  0  0
 10 31  1  0  0  0  0
 15 32  1  0  0  0  0
 15 33  1  0  0  0  0
 16 34  1  0  0  0  0
 16 35  1  0  0  0  0
 16 36  1  0  0  0  0
 18 37  1  0  0  0  0
 18 38  1  0  0  0  0
 19 39  1  0  0  0  0
 19 40  1  0  0  0  0
 19 41  1  0  0  0  0
M  END
