 xtb: 6.7.1 (edcfbbe)
          04092505203D

 41 40  0     0  0            999 V2000
    0.5162   -2.1953    2.3998 C   0  0  0  0  0  0  0  0  0  0  0  0
    1.5936   -1.1312    2.4645 C   0  0  0  0  0  0  0  0  0  0  0  0
    1.3719   -0.1316    1.4416 O   0  0  0  0  0  0  0  0  0  0  0  0
    2.2325   -0.0474    0.1199 P   0  0  0  0  0  0  0  0  0  0  0  0
    2.9614   -1.7227   -0.5980 S   0  0  0  0  0  0  0  0  0  0  0  0
    3.3404    1.0061    0.5579 O   0  0  0  0  0  0  0  0  0  0  0  0
    4.4681    1.3259   -0.2825 C   0  0  0  0  0  0  0  0  0  0  0  0
    5.5586    1.9024    0.5977 C   0  0  0  0  0  0  0  0  0  0  0  0
    0.9728    1.0800   -1.1410 S   0  0  0  0  0  0  0  0  0  0  0  0
    0.2040   -0.3182   -2.0098 C   0  0  0  0  0  0  0  0  0  0  0  0
   -0.7183   -1.4157   -0.9064 S   0  0  0  0  0  0  0  0  0  0  0  0
   -2.1187    0.0234   -0.2263 P   0  0  0  0  0  0  0  0  0  0  0  0
   -2.7119    1.3217   -1.5756 S   0  0  0  0  0  0  0  0  0  0  0  0
   -1.4239    0.6275    1.0585 O   0  0  0  0  0  0  0  0  0  0  0  0
   -1.5070    2.0202    1.4092 C   0  0  0  0  0  0  0  0  0  0  0  0
   -2.8357    2.3296    2.0662 C   0  0  0  0  0  0  0  0  0  0  0  0
   -3.2179   -0.8818    0.4742 O   0  0  0  0  0  0  0  0  0  0  0  0
   -4.0579   -1.8100   -0.2408 C   0  0  0  0  0  0  0  0  0  0  0  0
   -5.3091   -1.1332   -0.7667 C   0  0  0  0  0  0  0  0  0  0  0  0
   -0.4666   -1.7301    2.4218 H   0  0  0  0  0  0  0  0  0  0  0  0
    0.6085   -2.7699    1.4802 H   0  0  0  0  0  0  0  0  0  0  0  0
    0.6203   -2.8628    3.2491 H   0  0  0  0  0  0  0  0  0  0  0  0
    2.5862   -1.5705    2.3308 H   0  0  0  0  0  0  0  0  0  0  0  0
    1.5576   -0.5808    3.4058 H   0  0  0  0  0  0  0  0  0  0  0  0
    4.7993    0.4103   -0.7843 H   0  0  0  0  0  0  0  0  0  0  0  0
    4.1369    2.0475   -1.0338 H   0  0  0  0  0  0  0  0  0  0  0  0
    6.4074    2.1749   -0.0208 H   0  0  0  0  0  0  0  0  0  0  0  0
    5.1901    2.7842    1.1137 H   0  0  0  0  0  0  0  0  0  0  0  0
    5.8723    1.1683    1.3344 H   0  0  0  0  0  0  0  0  0  0  0  0
    0.9757   -0.9279   -2.4781 H   0  0  0  0  0  0  0  0  0  0  0  0
   -0.4691    0.1159   -2.7486 H   0  0  0  0  0  0  0  0  0  0  0  0
   -0.6651    2.1774    2.0852 H   0  0  0  0  0  0  0  0  0  0  0  0
   -1.3691    2.6234    0.5052 H   0  0  0  0  0  0  0  0  0  0  0  0
   -2.8542    3.3700    2.3747 H   0  0  0  0  0  0  0  0  0  0  0  0
   -3.6421    2.1543    1.3550 H   0  0  0  0  0  0  0  0  0  0  0  0
   -2.9855    1.6897    2.9315 H   0  0  0  0  0  0  0  0  0  0  0  0
   -3.4822   -2.2626   -1.0534 H   0  0  0  0  0  0  0  0  0  0  0  0
   -4.3019   -2.5738    0.5000 H   0  0  0  0  0  0  0  0  0  0  0  0
   -5.9387   -1.8733   -1.2500 H   0  0  0  0  0  0  0  0  0  0  0  0
   -5.8578   -0.6738    0.0508 H   0  0  0  0  0  0  0  0  0  0  0  0
   -5.0491   -0.3629   -1.4892 H   0  0  0  0  0  0  0  0  0  0  0  0
  1  2  1  0  0  0  0
  2  3  1  0  0  0  0
  3  4  2  0  0  0  0
  4  5  2  0  0  0  0
  4  6  2  0  0  0  0
  6  7  1  0  0  0  0
  7  8  1  0  0  0  0
  4  9  1  0  0  0  0
  9 10  1  0  0  0  0
 10 11  1  0  0  0  0
 11 12  1  0  0  0  0
 12 13  2  0  0  0  0
 12 14  2  0  0  0  0
 14 15  1  0  0  0  0
 15 16  1  0  0  0  0
 12 17  2  0  0  0  0
 17 18  1  0  0  0  0
 18 19  1  0  0  0  0
  1 20  1  0  0  0  0
  1 21  1  0  0  0  0
  1 22  1  0  0  0  0
  2 23  1  0  0  0  0
  2 24  1  0  0  0  0
  7 25  1  0  0  0  0
  7 26  1  0  0  0  0
  8 27  1  0  0  0  0
  8 28  1  0  0  0  0
  8 29  1  0  0  0  0
 10 30  1  0  0  0  0
 10 31  1  0  0  0  0
 15 32  1  0  0  0  0
 15 33  1  0  0  0  0
 16 34  1  0  0  0  0
 16 35  1  0  0  0  0
 16 36  1  0  0  0  0
 18 37  1  0  0  0  0
 18 38  1  0  0  0  0
 19 39  1  0  0  0  0
 19 40  1  0  0  0  0
 19 41  1  0  0  0  0
M  END
