 xtb: 6.7.1 (edcfbbe)
          04092505203D

 41 40  0     0  0            999 V2000
    2.4956    0.6463   -3.0068 C   0  0  0  0  0  0  0  0  0  0  0  0
    2.2282   -0.7763   -2.5587 C   0  0  0  0  0  0  0  0  0  0  0  0
    1.4709   -0.8245   -1.3290 O   0  0  0  0  0  0  0  0  0  0  0  0
    2.0566   -0.4348    0.0923 P   0  0  0  0  0  0  0  0  0  0  0  0
    2.4847    1.4341    0.5263 S   0  0  0  0  0  0  0  0  0  0  0  0
    3.3282   -1.3937    0.1405 O   0  0  0  0  0  0  0  0  0  0  0  0
    4.3836   -1.2225    1.1007 C   0  0  0  0  0  0  0  0  0  0  0  0
    3.9267   -1.5367    2.5105 C   0  0  0  0  0  0  0  0  0  0  0  0
    0.6133   -1.3724    1.3145 S   0  0  0  0  0  0  0  0  0  0  0  0
   -0.1226    0.0859    2.1281 C   0  0  0  0  0  0  0  0  0  0  0  0
   -1.9244    0.1338    1.9917 S   0  0  0  0  0  0  0  0  0  0  0  0
   -2.1029    0.3432   -0.0956 P   0  0  0  0  0  0  0  0  0  0  0  0
   -0.8026    1.4854   -1.0302 S   0  0  0  0  0  0  0  0  0  0  0  0
   -3.6370    0.7059   -0.2947 O   0  0  0  0  0  0  0  0  0  0  0  0
   -4.3532    1.7408    0.4039 C   0  0  0  0  0  0  0  0  0  0  0  0
   -3.6561    3.0842    0.3465 C   0  0  0  0  0  0  0  0  0  0  0  0
   -2.0848   -1.1723   -0.5622 O   0  0  0  0  0  0  0  0  0  0  0  0
   -1.7875   -1.5668   -1.9131 C   0  0  0  0  0  0  0  0  0  0  0  0
   -2.9138   -1.1990   -2.8556 C   0  0  0  0  0  0  0  0  0  0  0  0
    2.9320    0.6374   -4.0004 H   0  0  0  0  0  0  0  0  0  0  0  0
    1.5661    1.2127   -3.0243 H   0  0  0  0  0  0  0  0  0  0  0  0
    3.1808    1.1406   -2.3203 H   0  0  0  0  0  0  0  0  0  0  0  0
    3.1590   -1.3299   -2.4156 H   0  0  0  0  0  0  0  0  0  0  0  0
    1.5903   -1.3028   -3.2714 H   0  0  0  0  0  0  0  0  0  0  0  0
    5.1588   -1.9120    0.7636 H   0  0  0  0  0  0  0  0  0  0  0  0
    4.7447   -0.1911    1.0362 H   0  0  0  0  0  0  0  0  0  0  0  0
    3.2078   -0.7879    2.8404 H   0  0  0  0  0  0  0  0  0  0  0  0
    3.4567   -2.5162    2.5467 H   0  0  0  0  0  0  0  0  0  0  0  0
    4.7827   -1.5204    3.1773 H   0  0  0  0  0  0  0  0  0  0  0  0
    0.3155    0.9862    1.6861 H   0  0  0  0  0  0  0  0  0  0  0  0
    0.0863    0.0320    3.1936 H   0  0  0  0  0  0  0  0  0  0  0  0
   -5.3190    1.7706   -0.1039 H   0  0  0  0  0  0  0  0  0  0  0  0
   -4.4877    1.4184    1.4401 H   0  0  0  0  0  0  0  0  0  0  0  0
   -2.7019    3.0355    0.8703 H   0  0  0  0  0  0  0  0  0  0  0  0
   -3.4664    3.3716   -0.6852 H   0  0  0  0  0  0  0  0  0  0  0  0
   -4.2801    3.8352    0.8201 H   0  0  0  0  0  0  0  0  0  0  0  0
   -0.8524   -1.0852   -2.2167 H   0  0  0  0  0  0  0  0  0  0  0  0
   -1.6417   -2.6459   -1.8457 H   0  0  0  0  0  0  0  0  0  0  0  0
   -3.0201   -0.1151   -2.8903 H   0  0  0  0  0  0  0  0  0  0  0  0
   -2.6896   -1.5679   -3.8515 H   0  0  0  0  0  0  0  0  0  0  0  0
   -3.8484   -1.6308   -2.5079 H   0  0  0  0  0  0  0  0  0  0  0  0
  1  2  1  0  0  0  0
  2  3  1  0  0  0  0
  3  4  2  0  0  0  0
  4  5  2  0  0  0  0
  4  6  2  0  0  0  0
  6  7  1  0  0  0  0
  7  8  1  0  0  0  0
  4  9  1  0  0  0  0
  9 10  1  0  0  0  0
 10 11  1  0  0  0  0
 11 12  1  0  0  0  0
 12 13  2  0  0  0  0
 12 14  2  0  0  0  0
 14 15  1  0  0  0  0
 15 16  1  0  0  0  0
 12 17  2  0  0  0  0
 17 18  1  0  0  0  0
 18 19  1  0  0  0  0
  1 20  1  0  0  0  0
  1 21  1  0  0  0  0
  1 22  1  0  0  0  0
  2 23  1  0  0  0  0
  2 24  1  0  0  0  0
  7 25  1  0  0  0  0
  7 26  1  0  0  0  0
  8 27  1  0  0  0  0
  8 28  1  0  0  0  0
  8 29  1  0  0  0  0
 10 30  1  0  0  0  0
 10 31  1  0  0  0  0
 15 32  1  0  0  0  0
 15 33  1  0  0  0  0
 16 34  1  0  0  0  0
 16 35  1  0  0  0  0
 16 36  1  0  0  0  0
 18 37  1  0  0  0  0
 18 38  1  0  0  0  0
 19 39  1  0  0  0  0
 19 40  1  0  0  0  0
 19 41  1  0  0  0  0
M  END
