 xtb: 6.7.1 (edcfbbe)
          04092505203D

 41 40  0     0  0            999 V2000
    4.9660    1.2275    0.0172 C   0  0  0  0  0  0  0  0  0  0  0  0
    3.6879    1.4503   -0.7633 C   0  0  0  0  0  0  0  0  0  0  0  0
    2.9101    0.2391   -0.8694 O   0  0  0  0  0  0  0  0  0  0  0  0
    2.1849   -0.3973    0.3859 P   0  0  0  0  0  0  0  0  0  0  0  0
    1.5824    0.8631    1.7689 S   0  0  0  0  0  0  0  0  0  0  0  0
    3.2564   -1.4475    0.9120 O   0  0  0  0  0  0  0  0  0  0  0  0
    3.1439   -2.0684    2.2029 C   0  0  0  0  0  0  0  0  0  0  0  0
    1.9523   -3.0013    2.2740 C   0  0  0  0  0  0  0  0  0  0  0  0
    0.7707   -1.6131   -0.6249 S   0  0  0  0  0  0  0  0  0  0  0  0
    0.1482   -0.4082   -1.8338 C   0  0  0  0  0  0  0  0  0  0  0  0
   -0.5564    1.0790   -1.0917 S   0  0  0  0  0  0  0  0  0  0  0  0
   -2.5561    0.3890   -0.7521 P   0  0  0  0  0  0  0  0  0  0  0  0
   -3.0562   -1.1681   -1.8277 S   0  0  0  0  0  0  0  0  0  0  0  0
   -3.5009    1.5985   -1.0983 O   0  0  0  0  0  0  0  0  0  0  0  0
   -3.7022    2.7844   -0.2910 C   0  0  0  0  0  0  0  0  0  0  0  0
   -2.4351    3.5949   -0.1200 C   0  0  0  0  0  0  0  0  0  0  0  0
   -2.7390    0.3094    0.8277 O   0  0  0  0  0  0  0  0  0  0  0  0
   -1.9785   -0.4945    1.7413 C   0  0  0  0  0  0  0  0  0  0  0  0
   -2.2228   -1.9784    1.5577 C   0  0  0  0  0  0  0  0  0  0  0  0
    4.7303    0.9964    1.0552 H   0  0  0  0  0  0  0  0  0  0  0  0
    5.5264    0.3992   -0.4084 H   0  0  0  0  0  0  0  0  0  0  0  0
    5.5697    2.1291   -0.0152 H   0  0  0  0  0  0  0  0  0  0  0  0
    3.8882    1.7252   -1.7997 H   0  0  0  0  0  0  0  0  0  0  0  0
    3.0697    2.2185   -0.2875 H   0  0  0  0  0  0  0  0  0  0  0  0
    4.0867   -2.6035    2.3227 H   0  0  0  0  0  0  0  0  0  0  0  0
    3.0611   -1.2814    2.9599 H   0  0  0  0  0  0  0  0  0  0  0  0
    1.9962   -3.7347    1.4729 H   0  0  0  0  0  0  0  0  0  0  0  0
    1.9459   -3.5105    3.2322 H   0  0  0  0  0  0  0  0  0  0  0  0
    1.0310   -2.4282    2.1694 H   0  0  0  0  0  0  0  0  0  0  0  0
   -0.6303   -0.9289   -2.3967 H   0  0  0  0  0  0  0  0  0  0  0  0
    0.9632   -0.0912   -2.4783 H   0  0  0  0  0  0  0  0  0  0  0  0
   -4.4590    3.3368   -0.8501 H   0  0  0  0  0  0  0  0  0  0  0  0
   -4.1039    2.4756    0.6756 H   0  0  0  0  0  0  0  0  0  0  0  0
   -2.0050    3.8371   -1.0887 H   0  0  0  0  0  0  0  0  0  0  0  0
   -2.6704    4.5145    0.4069 H   0  0  0  0  0  0  0  0  0  0  0  0
   -1.6991    3.0389    0.4596 H   0  0  0  0  0  0  0  0  0  0  0  0
   -0.9172   -0.2487    1.6301 H   0  0  0  0  0  0  0  0  0  0  0  0
   -2.3173   -0.1558    2.7225 H   0  0  0  0  0  0  0  0  0  0  0  0
   -1.8192   -2.3219    0.6068 H   0  0  0  0  0  0  0  0  0  0  0  0
   -1.7388   -2.5223    2.3628 H   0  0  0  0  0  0  0  0  0  0  0  0
   -3.2899   -2.1853    1.5760 H   0  0  0  0  0  0  0  0  0  0  0  0
  1  2  1  0  0  0  0
  2  3  1  0  0  0  0
  3  4  2  0  0  0  0
  4  5  2  0  0  0  0
  4  6  2  0  0  0  0
  6  7  1  0  0  0  0
  7  8  1  0  0  0  0
  4  9  1  0  0  0  0
  9 10  1  0  0  0  0
 10 11  1  0  0  0  0
 11 12  1  0  0  0  0
 12 13  2  0  0  0  0
 12 14  2  0  0  0  0
 14 15  1  0  0  0  0
 15 16  1  0  0  0  0
 12 17  2  0  0  0  0
 17 18  1  0  0  0  0
 18 19  1  0  0  0  0
  1 20  1  0  0  0  0
  1 21  1  0  0  0  0
  1 22  1  0  0  0  0
  2 23  1  0  0  0  0
  2 24  1  0  0  0  0
  7 25  1  0  0  0  0
  7 26  1  0  0  0  0
  8 27  1  0  0  0  0
  8 28  1  0  0  0  0
  8 29  1  0  0  0  0
 10 30  1  0  0  0  0
 10 31  1  0  0  0  0
 15 32  1  0  0  0  0
 15 33  1  0  0  0  0
 16 34  1  0  0  0  0
 16 35  1  0  0  0  0
 16 36  1  0  0  0  0
 18 37  1  0  0  0  0
 18 38  1  0  0  0  0
 19 39  1  0  0  0  0
 19 40  1  0  0  0  0
 19 41  1  0  0  0  0
M  END
