 xtb: 6.7.1 (edcfbbe)
          04092505213D

 41 40  0     0  0            999 V2000
    3.3952    0.5336   -2.0842 C   0  0  0  0  0  0  0  0  0  0  0  0
    2.1893    0.8424   -1.2197 C   0  0  0  0  0  0  0  0  0  0  0  0
    2.0057   -0.2361   -0.2910 O   0  0  0  0  0  0  0  0  0  0  0  0
    1.5853   -0.0871    1.2388 P   0  0  0  0  0  0  0  0  0  0  0  0
    1.7378    1.7177    1.9830 S   0  0  0  0  0  0  0  0  0  0  0  0
    2.4906   -1.1870    1.9500 O   0  0  0  0  0  0  0  0  0  0  0  0
    3.7834   -0.8947    2.5119 C   0  0  0  0  0  0  0  0  0  0  0  0
    4.7949   -0.5040    1.4546 C   0  0  0  0  0  0  0  0  0  0  0  0
   -0.2351   -1.1365    1.4747 S   0  0  0  0  0  0  0  0  0  0  0  0
   -0.1957   -2.2221    0.0314 C   0  0  0  0  0  0  0  0  0  0  0  0
   -0.4548   -1.3984   -1.5880 S   0  0  0  0  0  0  0  0  0  0  0  0
   -1.7463    0.1952   -1.1266 P   0  0  0  0  0  0  0  0  0  0  0  0
   -2.5551    1.0630   -2.6834 S   0  0  0  0  0  0  0  0  0  0  0  0
   -0.7757    1.1303   -0.2688 O   0  0  0  0  0  0  0  0  0  0  0  0
   -1.0859    2.5286   -0.0814 C   0  0  0  0  0  0  0  0  0  0  0  0
   -2.2836    2.7268    0.8218 C   0  0  0  0  0  0  0  0  0  0  0  0
   -2.7784   -0.3322   -0.0352 O   0  0  0  0  0  0  0  0  0  0  0  0
   -4.0619   -0.8673   -0.4016 C   0  0  0  0  0  0  0  0  0  0  0  0
   -3.9547   -2.2953   -0.8980 C   0  0  0  0  0  0  0  0  0  0  0  0
    3.4952    1.3107   -2.8351 H   0  0  0  0  0  0  0  0  0  0  0  0
    4.2993    0.4979   -1.4834 H   0  0  0  0  0  0  0  0  0  0  0  0
    3.2561   -0.4244   -2.5772 H   0  0  0  0  0  0  0  0  0  0  0  0
    1.2862    0.9171   -1.8334 H   0  0  0  0  0  0  0  0  0  0  0  0
    2.3157    1.7749   -0.6588 H   0  0  0  0  0  0  0  0  0  0  0  0
    3.6652   -0.0914    3.2458 H   0  0  0  0  0  0  0  0  0  0  0  0
    4.0615   -1.8205    3.0173 H   0  0  0  0  0  0  0  0  0  0  0  0
    4.5192    0.4563    1.0202 H   0  0  0  0  0  0  0  0  0  0  0  0
    5.7755   -0.4128    1.9114 H   0  0  0  0  0  0  0  0  0  0  0  0
    4.8295   -1.2562    0.6705 H   0  0  0  0  0  0  0  0  0  0  0  0
   -0.9922   -2.9450    0.1881 H   0  0  0  0  0  0  0  0  0  0  0  0
    0.7719   -2.7120   -0.0450 H   0  0  0  0  0  0  0  0  0  0  0  0
   -0.1787    2.9426    0.3629 H   0  0  0  0  0  0  0  0  0  0  0  0
   -1.2586    2.9754   -1.0658 H   0  0  0  0  0  0  0  0  0  0  0  0
   -3.1855    2.3599    0.3344 H   0  0  0  0  0  0  0  0  0  0  0  0
   -2.1386    2.1884    1.7556 H   0  0  0  0  0  0  0  0  0  0  0  0
   -2.3984    3.7856    1.0312 H   0  0  0  0  0  0  0  0  0  0  0  0
   -4.6482   -0.8028    0.5158 H   0  0  0  0  0  0  0  0  0  0  0  0
   -4.5000   -0.2233   -1.1718 H   0  0  0  0  0  0  0  0  0  0  0  0
   -3.5083   -2.9280   -0.1356 H   0  0  0  0  0  0  0  0  0  0  0  0
   -4.9476   -2.6666   -1.1311 H   0  0  0  0  0  0  0  0  0  0  0  0
   -3.3452   -2.3324   -1.8003 H   0  0  0  0  0  0  0  0  0  0  0  0
  1  2  1  0  0  0  0
  2  3  1  0  0  0  0
  3  4  2  0  0  0  0
  4  5  2  0  0  0  0
  4  6  2  0  0  0  0
  6  7  1  0  0  0  0
  7  8  1  0  0  0  0
  4  9  1  0  0  0  0
  9 10  1  0  0  0  0
 10 11  1  0  0  0  0
 11 12  1  0  0  0  0
 12 13  2  0  0  0  0
 12 14  1  0  0  0  0
 14 15  1  0  0  0  0
 15 16  1  0  0  0  0
 12 17  2  0  0  0  0
 17 18  1  0  0  0  0
 18 19  1  0  0  0  0
  1 20  1  0  0  0  0
  1 21  1  0  0  0  0
  1 22  1  0  0  0  0
  2 23  1  0  0  0  0
  2 24  1  0  0  0  0
  7 25  1  0  0  0  0
  7 26  1  0  0  0  0
  8 27  1  0  0  0  0
  8 28  1  0  0  0  0
  8 29  1  0  0  0  0
 10 30  1  0  0  0  0
 10 31  1  0  0  0  0
 15 32  1  0  0  0  0
 15 33  1  0  0  0  0
 16 34  1  0  0  0  0
 16 35  1  0  0  0  0
 16 36  1  0  0  0  0
 18 37  1  0  0  0  0
 18 38  1  0  0  0  0
 19 39  1  0  0  0  0
 19 40  1  0  0  0  0
 19 41  1  0  0  0  0
M  END
