 xtb: 6.7.1 (edcfbbe)
          04092505213D

 41 40  0     0  0            999 V2000
    3.8434   -0.4146   -2.3348 C   0  0  0  0  0  0  0  0  0  0  0  0
    2.5454    0.3501   -2.1938 C   0  0  0  0  0  0  0  0  0  0  0  0
    1.8121   -0.0816   -1.0325 O   0  0  0  0  0  0  0  0  0  0  0  0
    2.2750    0.2697    0.4370 P   0  0  0  0  0  0  0  0  0  0  0  0
    3.2955    1.9243    0.6668 S   0  0  0  0  0  0  0  0  0  0  0  0
    2.9912   -1.0988    0.8473 O   0  0  0  0  0  0  0  0  0  0  0  0
    3.5797   -1.2774    2.1504 C   0  0  0  0  0  0  0  0  0  0  0  0
    5.0543   -0.9245    2.1345 C   0  0  0  0  0  0  0  0  0  0  0  0
    0.4522    0.2198    1.4831 S   0  0  0  0  0  0  0  0  0  0  0  0
   -0.2308   -1.3562    0.8245 C   0  0  0  0  0  0  0  0  0  0  0  0
   -2.0246   -1.3247    0.8710 S   0  0  0  0  0  0  0  0  0  0  0  0
   -2.3041    0.1011   -0.6957 P   0  0  0  0  0  0  0  0  0  0  0  0
   -1.1651   -0.1981   -2.2611 S   0  0  0  0  0  0  0  0  0  0  0  0
   -2.0386    1.5589   -0.1558 O   0  0  0  0  0  0  0  0  0  0  0  0
   -2.8868    2.3271    0.7325 C   0  0  0  0  0  0  0  0  0  0  0  0
   -3.0122    1.7085    2.1094 C   0  0  0  0  0  0  0  0  0  0  0  0
   -3.8780    0.1121   -0.8972 O   0  0  0  0  0  0  0  0  0  0  0  0
   -4.7058   -1.0600   -1.0245 C   0  0  0  0  0  0  0  0  0  0  0  0
   -4.2641   -1.9687   -2.1519 C   0  0  0  0  0  0  0  0  0  0  0  0
    3.6493   -1.4837   -2.3498 H   0  0  0  0  0  0  0  0  0  0  0  0
    4.3355   -0.1215   -3.2566 H   0  0  0  0  0  0  0  0  0  0  0  0
    4.4950   -0.1835   -1.4927 H   0  0  0  0  0  0  0  0  0  0  0  0
    1.8560    0.1595   -3.0187 H   0  0  0  0  0  0  0  0  0  0  0  0
    2.7328    1.4254   -2.1083 H   0  0  0  0  0  0  0  0  0  0  0  0
    3.0386   -0.6622    2.8771 H   0  0  0  0  0  0  0  0  0  0  0  0
    3.4288   -2.3341    2.3794 H   0  0  0  0  0  0  0  0  0  0  0  0
    5.4799   -1.1230    3.1128 H   0  0  0  0  0  0  0  0  0  0  0  0
    5.5725   -1.5205    1.3886 H   0  0  0  0  0  0  0  0  0  0  0  0
    5.1868    0.1289    1.8978 H   0  0  0  0  0  0  0  0  0  0  0  0
    0.0884   -2.1791    1.4581 H   0  0  0  0  0  0  0  0  0  0  0  0
    0.1032   -1.4739   -0.2066 H   0  0  0  0  0  0  0  0  0  0  0  0
   -2.3823    3.2938    0.7752 H   0  0  0  0  0  0  0  0  0  0  0  0
   -3.8636    2.4367    0.2578 H   0  0  0  0  0  0  0  0  0  0  0  0
   -3.5288    2.4070    2.7603 H   0  0  0  0  0  0  0  0  0  0  0  0
   -3.5792    0.7813    2.0656 H   0  0  0  0  0  0  0  0  0  0  0  0
   -2.0261    1.5012    2.5206 H   0  0  0  0  0  0  0  0  0  0  0  0
   -4.6908   -1.5931   -0.0701 H   0  0  0  0  0  0  0  0  0  0  0  0
   -5.7008   -0.6505   -1.2078 H   0  0  0  0  0  0  0  0  0  0  0  0
   -3.2755   -2.3742   -1.9419 H   0  0  0  0  0  0  0  0  0  0  0  0
   -4.9691   -2.7874   -2.2523 H   0  0  0  0  0  0  0  0  0  0  0  0
   -4.2159   -1.4172   -3.0880 H   0  0  0  0  0  0  0  0  0  0  0  0
  1  2  1  0  0  0  0
  2  3  1  0  0  0  0
  3  4  2  0  0  0  0
  4  5  2  0  0  0  0
  4  6  1  0  0  0  0
  6  7  1  0  0  0  0
  7  8  1  0  0  0  0
  4  9  1  0  0  0  0
  9 10  1  0  0  0  0
 10 11  1  0  0  0  0
 11 12  1  0  0  0  0
 12 13  2  0  0  0  0
 12 14  2  0  0  0  0
 14 15  1  0  0  0  0
 15 16  1  0  0  0  0
 12 17  2  0  0  0  0
 17 18  1  0  0  0  0
 18 19  1  0  0  0  0
  1 20  1  0  0  0  0
  1 21  1  0  0  0  0
  1 22  1  0  0  0  0
  2 23  1  0  0  0  0
  2 24  1  0  0  0  0
  7 25  1  0  0  0  0
  7 26  1  0  0  0  0
  8 27  1  0  0  0  0
  8 28  1  0  0  0  0
  8 29  1  0  0  0  0
 10 30  1  0  0  0  0
 10 31  1  0  0  0  0
 15 32  1  0  0  0  0
 15 33  1  0  0  0  0
 16 34  1  0  0  0  0
 16 35  1  0  0  0  0
 16 36  1  0  0  0  0
 18 37  1  0  0  0  0
 18 38  1  0  0  0  0
 19 39  1  0  0  0  0
 19 40  1  0  0  0  0
 19 41  1  0  0  0  0
M  END
