 xtb: 6.7.1 (edcfbbe)
          04092507313D

 38 37  0     0  0            999 V2000
    5.0442   -0.3475   -0.6227 C   0  0  0  0  0  0  0  0  0  0  0  0
    4.4666   -1.5464   -1.3575 C   0  0  0  0  0  0  0  0  0  0  0  0
    3.0399   -1.4073   -1.4999 O   0  0  0  0  0  0  0  0  0  0  0  0
    2.2532   -2.0367   -0.6423 C   0  0  0  0  0  0  0  0  0  0  0  0
    2.6370   -2.8019    0.2119 O   0  0  0  0  0  0  0  0  0  0  0  0
    0.7872   -1.7555   -0.9233 C   0  0  0  0  0  0  0  0  0  0  0  0
    0.5464   -0.2615   -1.1065 C   0  0  0  0  0  0  0  0  0  0  0  0
    1.1194    0.0971   -1.9690 H   0  0  0  0  0  0  0  0  0  0  0  0
    1.0305    0.5224    0.0988 C   0  0  0  0  0  0  0  0  0  0  0  0
    1.9879    0.1724    0.7509 O   0  0  0  0  0  0  0  0  0  0  0  0
    0.3637    1.6432    0.2861 O   0  0  0  0  0  0  0  0  0  0  0  0
    0.7925    2.4980    1.3664 C   0  0  0  0  0  0  0  0  0  0  0  0
    0.2000    3.8757    1.1539 C   0  0  0  0  0  0  0  0  0  0  0  0
   -1.1826    0.1132   -1.5254 S   0  0  0  0  0  0  0  0  0  0  0  0
   -2.0773    0.1892    0.4017 P   0  0  0  0  0  0  0  0  0  0  0  0
   -1.1540   -0.6856    1.8978 S   0  0  0  0  0  0  0  0  0  0  0  0
   -2.4502    1.6910    0.7082 O   0  0  0  0  0  0  0  0  0  0  0  0
   -3.1954    2.4957   -0.2312 C   0  0  0  0  0  0  0  0  0  0  0  0
   -3.5322   -0.4064    0.0973 O   0  0  0  0  0  0  0  0  0  0  0  0
   -3.7234   -1.7922   -0.2048 C   0  0  0  0  0  0  0  0  0  0  0  0
    6.1096   -0.4910   -0.4767 H   0  0  0  0  0  0  0  0  0  0  0  0
    4.8772    0.5617   -1.1933 H   0  0  0  0  0  0  0  0  0  0  0  0
    4.5596   -0.2455    0.3464 H   0  0  0  0  0  0  0  0  0  0  0  0
    4.6709   -2.4723   -0.8128 H   0  0  0  0  0  0  0  0  0  0  0  0
    4.8475   -1.6121   -2.3777 H   0  0  0  0  0  0  0  0  0  0  0  0
    0.2101   -2.1467   -0.0829 H   0  0  0  0  0  0  0  0  0  0  0  0
    0.5048   -2.2830   -1.8357 H   0  0  0  0  0  0  0  0  0  0  0  0
    0.4490    2.0457    2.3027 H   0  0  0  0  0  0  0  0  0  0  0  0
    1.8865    2.5119    1.3688 H   0  0  0  0  0  0  0  0  0  0  0  0
    0.5607    4.5377    1.9340 H   0  0  0  0  0  0  0  0  0  0  0  0
    0.4972    4.2657    0.1850 H   0  0  0  0  0  0  0  0  0  0  0  0
   -0.8828    3.8228    1.2024 H   0  0  0  0  0  0  0  0  0  0  0  0
   -3.3510    3.4482    0.2684 H   0  0  0  0  0  0  0  0  0  0  0  0
   -4.1479    2.0205   -0.4552 H   0  0  0  0  0  0  0  0  0  0  0  0
   -2.6157    2.6260   -1.1444 H   0  0  0  0  0  0  0  0  0  0  0  0
   -4.7961   -1.9590   -0.1485 H   0  0  0  0  0  0  0  0  0  0  0  0
   -3.2047   -2.4128    0.5278 H   0  0  0  0  0  0  0  0  0  0  0  0
   -3.3532   -2.0072   -1.2069 H   0  0  0  0  0  0  0  0  0  0  0  0
  1  2  1  0  0  0  0
  2  3  1  0  0  0  0
  3  4  1  0  0  0  0
  4  5  2  0  0  0  0
  4  6  1  0  0  0  0
  6  7  1  0  0  0  0
  7  8  1  0  0  0  0
  7  9  1  0  0  0  0
  9 10  2  0  0  0  0
  9 11  1  0  0  0  0
 11 12  1  0  0  0  0
 12 13  1  0  0  0  0
  7 14  1  0  0  0  0
 14 15  1  0  0  0  0
 15 16  2  0  0  0  0
 15 17  2  0  0  0  0
 17 18  1  0  0  0  0
 15 19  1  0  0  0  0
 19 20  1  0  0  0  0
  1 21  1  0  0  0  0
  1 22  1  0  0  0  0
  1 23  1  0  0  0  0
  2 24  1  0  0  0  0
  2 25  1  0  0  0  0
  6 26  1  0  0  0  0
  6 27  1  0  0  0  0
 12 28  1  0  0  0  0
 12 29  1  0  0  0  0
 13 30  1  0  0  0  0
 13 31  1  0  0  0  0
 13 32  1  0  0  0  0
 18 33  1  0  0  0  0
 18 34  1  0  0  0  0
 18 35  1  0  0  0  0
 20 36  1  0  0  0  0
 20 37  1  0  0  0  0
 20 38  1  0  0  0  0
M  END
