 xtb: 6.7.1 (edcfbbe)
          04092505203D

 41 40  0     0  0            999 V2000
    3.4199   -2.0710   -2.1669 C   0  0  0  0  0  0  0  0  0  0  0  0
    4.0481   -0.6998   -2.0171 C   0  0  0  0  0  0  0  0  0  0  0  0
    3.6909   -0.0617   -0.7813 O   0  0  0  0  0  0  0  0  0  0  0  0
    2.2043    0.3970   -0.4243 P   0  0  0  0  0  0  0  0  0  0  0  0
    1.2474    1.1274   -1.9681 S   0  0  0  0  0  0  0  0  0  0  0  0
    2.4935    1.4718    0.6874 O   0  0  0  0  0  0  0  0  0  0  0  0
    2.7550    1.2209    2.0858 C   0  0  0  0  0  0  0  0  0  0  0  0
    3.9227    0.2829    2.3004 C   0  0  0  0  0  0  0  0  0  0  0  0
    1.3303   -1.2938    0.5317 S   0  0  0  0  0  0  0  0  0  0  0  0
   -0.0834   -1.5914   -0.5791 C   0  0  0  0  0  0  0  0  0  0  0  0
   -1.6788   -1.7299    0.2671 S   0  0  0  0  0  0  0  0  0  0  0  0
   -2.1518    0.2969    0.7077 P   0  0  0  0  0  0  0  0  0  0  0  0
   -0.6601    1.4941    1.1423 S   0  0  0  0  0  0  0  0  0  0  0  0
   -3.1558    0.1961    1.9076 O   0  0  0  0  0  0  0  0  0  0  0  0
   -4.1615   -0.8295    2.1153 C   0  0  0  0  0  0  0  0  0  0  0  0
   -5.1122   -0.9678    0.9470 C   0  0  0  0  0  0  0  0  0  0  0  0
   -3.0816    0.8438   -0.4665 O   0  0  0  0  0  0  0  0  0  0  0  0
   -2.5915    1.2881   -1.7408 C   0  0  0  0  0  0  0  0  0  0  0  0
   -2.7740    0.2117   -2.7941 C   0  0  0  0  0  0  0  0  0  0  0  0
    2.3445   -1.9707   -2.3046 H   0  0  0  0  0  0  0  0  0  0  0  0
    3.8403   -2.5619   -3.0387 H   0  0  0  0  0  0  0  0  0  0  0  0
    3.6127   -2.6751   -1.2841 H   0  0  0  0  0  0  0  0  0  0  0  0
    3.7460   -0.0474   -2.8427 H   0  0  0  0  0  0  0  0  0  0  0  0
    5.1366   -0.7582   -1.9714 H   0  0  0  0  0  0  0  0  0  0  0  0
    2.9538    2.2178    2.4822 H   0  0  0  0  0  0  0  0  0  0  0  0
    1.8377    0.8312    2.5365 H   0  0  0  0  0  0  0  0  0  0  0  0
    4.1226    0.2048    3.3645 H   0  0  0  0  0  0  0  0  0  0  0  0
    3.6878   -0.7065    1.9107 H   0  0  0  0  0  0  0  0  0  0  0  0
    4.8053    0.6621    1.7917 H   0  0  0  0  0  0  0  0  0  0  0  0
    0.0591   -2.5608   -1.0509 H   0  0  0  0  0  0  0  0  0  0  0  0
   -0.1056   -0.7845   -1.3177 H   0  0  0  0  0  0  0  0  0  0  0  0
   -3.6471   -1.7725    2.3152 H   0  0  0  0  0  0  0  0  0  0  0  0
   -4.6748   -0.4882    3.0156 H   0  0  0  0  0  0  0  0  0  0  0  0
   -5.5496   -0.0035    0.7015 H   0  0  0  0  0  0  0  0  0  0  0  0
   -4.5855   -1.3503    0.0757 H   0  0  0  0  0  0  0  0  0  0  0  0
   -5.9014   -1.6633    1.2154 H   0  0  0  0  0  0  0  0  0  0  0  0
   -3.1853    2.1729   -1.9783 H   0  0  0  0  0  0  0  0  0  0  0  0
   -1.5409    1.5856   -1.6490 H   0  0  0  0  0  0  0  0  0  0  0  0
   -2.4055    0.5858   -3.7439 H   0  0  0  0  0  0  0  0  0  0  0  0
   -2.2173   -0.6849   -2.5325 H   0  0  0  0  0  0  0  0  0  0  0  0
   -3.8258   -0.0428   -2.8871 H   0  0  0  0  0  0  0  0  0  0  0  0
  1  2  1  0  0  0  0
  2  3  1  0  0  0  0
  3  4  2  0  0  0  0
  4  5  2  0  0  0  0
  4  6  2  0  0  0  0
  6  7  1  0  0  0  0
  7  8  1  0  0  0  0
  4  9  1  0  0  0  0
  9 10  1  0  0  0  0
 10 11  1  0  0  0  0
 11 12  1  0  0  0  0
 12 13  2  0  0  0  0
 12 14  2  0  0  0  0
 14 15  1  0  0  0  0
 15 16  1  0  0  0  0
 12 17  2  0  0  0  0
 17 18  1  0  0  0  0
 18 19  1  0  0  0  0
  1 20  1  0  0  0  0
  1 21  1  0  0  0  0
  1 22  1  0  0  0  0
  2 23  1  0  0  0  0
  2 24  1  0  0  0  0
  7 25  1  0  0  0  0
  7 26  1  0  0  0  0
  8 27  1  0  0  0  0
  8 28  1  0  0  0  0
  8 29  1  0  0  0  0
 10 30  1  0  0  0  0
 10 31  1  0  0  0  0
 15 32  1  0  0  0  0
 15 33  1  0  0  0  0
 16 34  1  0  0  0  0
 16 35  1  0  0  0  0
 16 36  1  0  0  0  0
 18 37  1  0  0  0  0
 18 38  1  0  0  0  0
 19 39  1  0  0  0  0
 19 40  1  0  0  0  0
 19 41  1  0  0  0  0
M  END
