 xtb: 6.7.1 (edcfbbe)
          04092505203D

 41 40  0     0  0            999 V2000
    2.9239   -0.4406   -2.6530 C   0  0  0  0  0  0  0  0  0  0  0  0
    1.6712    0.1829   -2.0766 C   0  0  0  0  0  0  0  0  0  0  0  0
    1.1958   -0.5379   -0.9247 O   0  0  0  0  0  0  0  0  0  0  0  0
    1.9888   -0.5216    0.4547 P   0  0  0  0  0  0  0  0  0  0  0  0
    3.0301    1.0960    0.8532 S   0  0  0  0  0  0  0  0  0  0  0  0
    2.8579   -1.8463    0.3240 O   0  0  0  0  0  0  0  0  0  0  0  0
    3.9905   -2.1135    1.1704 C   0  0  0  0  0  0  0  0  0  0  0  0
    3.5800   -2.3938    2.6017 C   0  0  0  0  0  0  0  0  0  0  0  0
    0.4650   -1.1044    1.7765 S   0  0  0  0  0  0  0  0  0  0  0  0
   -0.3493    0.5073    2.0467 C   0  0  0  0  0  0  0  0  0  0  0  0
   -0.4542    1.5665    0.5791 S   0  0  0  0  0  0  0  0  0  0  0  0
   -1.9333    0.5935   -0.5824 P   0  0  0  0  0  0  0  0  0  0  0  0
   -1.9597    1.1933   -2.4481 S   0  0  0  0  0  0  0  0  0  0  0  0
   -3.3208    0.7706    0.1899 O   0  0  0  0  0  0  0  0  0  0  0  0
   -4.1948    1.8794   -0.0698 C   0  0  0  0  0  0  0  0  0  0  0  0
   -3.6431    3.1749    0.4897 C   0  0  0  0  0  0  0  0  0  0  0  0
   -1.6026   -0.9184   -0.2637 O   0  0  0  0  0  0  0  0  0  0  0  0
   -2.5543   -2.0014   -0.3566 C   0  0  0  0  0  0  0  0  0  0  0  0
   -2.9745   -2.2653   -1.7869 C   0  0  0  0  0  0  0  0  0  0  0  0
    3.7452   -0.3402   -1.9442 H   0  0  0  0  0  0  0  0  0  0  0  0
    2.7578   -1.4955   -2.8553 H   0  0  0  0  0  0  0  0  0  0  0  0
    3.1861    0.0702   -3.5741 H   0  0  0  0  0  0  0  0  0  0  0  0
    0.8353    0.1482   -2.7788 H   0  0  0  0  0  0  0  0  0  0  0  0
    1.8516    1.2238   -1.7841 H   0  0  0  0  0  0  0  0  0  0  0  0
    4.4633   -2.9808    0.7078 H   0  0  0  0  0  0  0  0  0  0  0  0
    4.6648   -1.2520    1.1263 H   0  0  0  0  0  0  0  0  0  0  0  0
    3.1705   -1.4919    3.0543 H   0  0  0  0  0  0  0  0  0  0  0  0
    2.8246   -3.1749    2.6323 H   0  0  0  0  0  0  0  0  0  0  0  0
    4.4501   -2.7089    3.1687 H   0  0  0  0  0  0  0  0  0  0  0  0
    0.2313    1.0831    2.7652 H   0  0  0  0  0  0  0  0  0  0  0  0
   -1.3442    0.2895    2.4271 H   0  0  0  0  0  0  0  0  0  0  0  0
   -4.3386    1.9608   -1.1521 H   0  0  0  0  0  0  0  0  0  0  0  0
   -5.1326    1.5978    0.4110 H   0  0  0  0  0  0  0  0  0  0  0  0
   -2.7186    3.4367   -0.0249 H   0  0  0  0  0  0  0  0  0  0  0  0
   -4.3668    3.9690    0.3373 H   0  0  0  0  0  0  0  0  0  0  0  0
   -3.4359    3.0751    1.5519 H   0  0  0  0  0  0  0  0  0  0  0  0
   -2.0110   -2.8477    0.0681 H   0  0  0  0  0  0  0  0  0  0  0  0
   -3.4166   -1.7604    0.2684 H   0  0  0  0  0  0  0  0  0  0  0  0
   -2.1023   -2.4602   -2.4063 H   0  0  0  0  0  0  0  0  0  0  0  0
   -3.6358   -3.1257   -1.8158 H   0  0  0  0  0  0  0  0  0  0  0  0
   -3.4966   -1.3993   -2.1919 H   0  0  0  0  0  0  0  0  0  0  0  0
  1  2  1  0  0  0  0
  2  3  1  0  0  0  0
  3  4  1  0  0  0  0
  4  5  2  0  0  0  0
  4  6  2  0  0  0  0
  6  7  1  0  0  0  0
  7  8  1  0  0  0  0
  4  9  1  0  0  0  0
  9 10  1  0  0  0  0
 10 11  1  0  0  0  0
 11 12  1  0  0  0  0
 12 13  2  0  0  0  0
 12 14  2  0  0  0  0
 14 15  1  0  0  0  0
 15 16  1  0  0  0  0
 12 17  2  0  0  0  0
 17 18  1  0  0  0  0
 18 19  1  0  0  0  0
  1 20  1  0  0  0  0
  1 21  1  0  0  0  0
  1 22  1  0  0  0  0
  2 23  1  0  0  0  0
  2 24  1  0  0  0  0
  7 25  1  0  0  0  0
  7 26  1  0  0  0  0
  8 27  1  0  0  0  0
  8 28  1  0  0  0  0
  8 29  1  0  0  0  0
 10 30  1  0  0  0  0
 10 31  1  0  0  0  0
 15 32  1  0  0  0  0
 15 33  1  0  0  0  0
 16 34  1  0  0  0  0
 16 35  1  0  0  0  0
 16 36  1  0  0  0  0
 18 37  1  0  0  0  0
 18 38  1  0  0  0  0
 19 39  1  0  0  0  0
 19 40  1  0  0  0  0
 19 41  1  0  0  0  0
M  END
