 xtb: 6.7.1 (edcfbbe)
          04092505213D

 41 40  0     0  0            999 V2000
    2.0902   -1.9956   -2.6573 C   0  0  0  0  0  0  0  0  0  0  0  0
    2.1854   -2.2577   -1.1668 C   0  0  0  0  0  0  0  0  0  0  0  0
    2.9699   -1.2322   -0.5239 O   0  0  0  0  0  0  0  0  0  0  0  0
    2.2936    0.0176    0.1929 P   0  0  0  0  0  0  0  0  0  0  0  0
    1.1331    1.1502   -0.9063 S   0  0  0  0  0  0  0  0  0  0  0  0
    3.5359    0.8246    0.7176 O   0  0  0  0  0  0  0  0  0  0  0  0
    4.5597    0.2533    1.5731 C   0  0  0  0  0  0  0  0  0  0  0  0
    5.7343   -0.2417    0.7549 C   0  0  0  0  0  0  0  0  0  0  0  0
    1.4195   -0.8656    1.9344 S   0  0  0  0  0  0  0  0  0  0  0  0
   -0.2657   -0.2334    1.8365 C   0  0  0  0  0  0  0  0  0  0  0  0
   -1.2238   -1.0104    0.4970 S   0  0  0  0  0  0  0  0  0  0  0  0
   -2.2756    0.6865   -0.2577 P   0  0  0  0  0  0  0  0  0  0  0  0
   -1.9643    2.3515    0.7287 S   0  0  0  0  0  0  0  0  0  0  0  0
   -3.7783    0.1583   -0.3309 O   0  0  0  0  0  0  0  0  0  0  0  0
   -4.5092   -0.4335    0.7571 C   0  0  0  0  0  0  0  0  0  0  0  0
   -4.8794    0.5750    1.8260 C   0  0  0  0  0  0  0  0  0  0  0  0
   -1.9664    0.8860   -1.7851 O   0  0  0  0  0  0  0  0  0  0  0  0
   -2.4253    0.0370   -2.8667 C   0  0  0  0  0  0  0  0  0  0  0  0
   -1.9345   -1.3890   -2.7373 C   0  0  0  0  0  0  0  0  0  0  0  0
    3.0835   -1.9640   -3.0958 H   0  0  0  0  0  0  0  0  0  0  0  0
    1.5139   -2.7865   -3.1267 H   0  0  0  0  0  0  0  0  0  0  0  0
    1.6052   -1.0378   -2.8371 H   0  0  0  0  0  0  0  0  0  0  0  0
    2.7169   -3.1881   -0.9591 H   0  0  0  0  0  0  0  0  0  0  0  0
    1.1916   -2.2987   -0.7089 H   0  0  0  0  0  0  0  0  0  0  0  0
    4.8498    1.0753    2.2299 H   0  0  0  0  0  0  0  0  0  0  0  0
    4.1162   -0.5532    2.1637 H   0  0  0  0  0  0  0  0  0  0  0  0
    6.5093   -0.5955    1.4277 H   0  0  0  0  0  0  0  0  0  0  0  0
    5.4253   -1.0533    0.1025 H   0  0  0  0  0  0  0  0  0  0  0  0
    6.1294    0.5665    0.1456 H   0  0  0  0  0  0  0  0  0  0  0  0
   -0.2642    0.8473    1.6708 H   0  0  0  0  0  0  0  0  0  0  0  0
   -0.7251   -0.4845    2.7895 H   0  0  0  0  0  0  0  0  0  0  0  0
   -5.3993   -0.8424    0.2750 H   0  0  0  0  0  0  0  0  0  0  0  0
   -3.9110   -1.2474    1.1773 H   0  0  0  0  0  0  0  0  0  0  0  0
   -3.9845    0.9787    2.2956 H   0  0  0  0  0  0  0  0  0  0  0  0
   -5.4347    1.4008    1.3886 H   0  0  0  0  0  0  0  0  0  0  0  0
   -5.4906    0.0898    2.5802 H   0  0  0  0  0  0  0  0  0  0  0  0
   -3.5160    0.0800   -2.8908 H   0  0  0  0  0  0  0  0  0  0  0  0
   -2.0121    0.5250   -3.7509 H   0  0  0  0  0  0  0  0  0  0  0  0
   -2.2180   -1.9432   -3.6264 H   0  0  0  0  0  0  0  0  0  0  0  0
   -0.8525   -1.4027   -2.6356 H   0  0  0  0  0  0  0  0  0  0  0  0
   -2.3754   -1.8672   -1.8639 H   0  0  0  0  0  0  0  0  0  0  0  0
  1  2  1  0  0  0  0
  2  3  1  0  0  0  0
  3  4  2  0  0  0  0
  4  5  2  0  0  0  0
  4  6  2  0  0  0  0
  6  7  1  0  0  0  0
  7  8  1  0  0  0  0
  4  9  1  0  0  0  0
  9 10  1  0  0  0  0
 10 11  1  0  0  0  0
 11 12  1  0  0  0  0
 12 13  2  0  0  0  0
 12 14  2  0  0  0  0
 14 15  1  0  0  0  0
 15 16  1  0  0  0  0
 12 17  2  0  0  0  0
 17 18  1  0  0  0  0
 18 19  1  0  0  0  0
  1 20  1  0  0  0  0
  1 21  1  0  0  0  0
  1 22  1  0  0  0  0
  2 23  1  0  0  0  0
  2 24  1  0  0  0  0
  7 25  1  0  0  0  0
  7 26  1  0  0  0  0
  8 27  1  0  0  0  0
  8 28  1  0  0  0  0
  8 29  1  0  0  0  0
 10 30  1  0  0  0  0
 10 31  1  0  0  0  0
 15 32  1  0  0  0  0
 15 33  1  0  0  0  0
 16 34  1  0  0  0  0
 16 35  1  0  0  0  0
 16 36  1  0  0  0  0
 18 37  1  0  0  0  0
 18 38  1  0  0  0  0
 19 39  1  0  0  0  0
 19 40  1  0  0  0  0
 19 41  1  0  0  0  0
M  END
