 xtb: 6.7.1 (edcfbbe)
          04092505203D

 41 40  0     0  0            999 V2000
    4.3977    0.5820   -2.0260 C   0  0  0  0  0  0  0  0  0  0  0  0
    4.5956    0.2362   -0.5636 C   0  0  0  0  0  0  0  0  0  0  0  0
    3.4427   -0.4065    0.0005 O   0  0  0  0  0  0  0  0  0  0  0  0
    2.0660    0.3682    0.2332 P   0  0  0  0  0  0  0  0  0  0  0  0
    2.2551    2.2221    0.8312 S   0  0  0  0  0  0  0  0  0  0  0  0
    1.3302   -0.6372    1.2049 O   0  0  0  0  0  0  0  0  0  0  0  0
    1.3354   -0.4654    2.6356 C   0  0  0  0  0  0  0  0  0  0  0  0
    2.7015   -0.7457    3.2243 C   0  0  0  0  0  0  0  0  0  0  0  0
    0.9543    0.0783   -1.5516 S   0  0  0  0  0  0  0  0  0  0  0  0
    0.5102   -1.6715   -1.4195 C   0  0  0  0  0  0  0  0  0  0  0  0
   -0.7845   -2.0455   -0.1857 S   0  0  0  0  0  0  0  0  0  0  0  0
   -1.9764   -0.3217   -0.3516 P   0  0  0  0  0  0  0  0  0  0  0  0
   -2.4977    0.2788   -2.1481 S   0  0  0  0  0  0  0  0  0  0  0  0
   -1.1961    0.7209    0.5596 O   0  0  0  0  0  0  0  0  0  0  0  0
   -1.4202    2.1391    0.4189 C   0  0  0  0  0  0  0  0  0  0  0  0
   -2.7938    2.5380    0.9111 C   0  0  0  0  0  0  0  0  0  0  0  0
   -3.1976   -0.6981    0.5915 O   0  0  0  0  0  0  0  0  0  0  0  0
   -4.2757   -1.5414    0.1361 C   0  0  0  0  0  0  0  0  0  0  0  0
   -5.4650   -1.3131    1.0470 C   0  0  0  0  0  0  0  0  0  0  0  0
    4.1262   -0.3033   -2.5951 H   0  0  0  0  0  0  0  0  0  0  0  0
    3.6024    1.3207   -2.1287 H   0  0  0  0  0  0  0  0  0  0  0  0
    5.3173    0.9981   -2.4246 H   0  0  0  0  0  0  0  0  0  0  0  0
    4.8056    1.1403    0.0170 H   0  0  0  0  0  0  0  0  0  0  0  0
    5.3980   -0.4897   -0.4250 H   0  0  0  0  0  0  0  0  0  0  0  0
    1.0139    0.5555    2.8646 H   0  0  0  0  0  0  0  0  0  0  0  0
    0.5844   -1.1764    2.9836 H   0  0  0  0  0  0  0  0  0  0  0  0
    2.6421   -0.7012    4.3072 H   0  0  0  0  0  0  0  0  0  0  0  0
    3.0470   -1.7299    2.9193 H   0  0  0  0  0  0  0  0  0  0  0  0
    3.4129    0.0028    2.8774 H   0  0  0  0  0  0  0  0  0  0  0  0
    1.3807   -2.2586   -1.1366 H   0  0  0  0  0  0  0  0  0  0  0  0
    0.1462   -1.9472   -2.4075 H   0  0  0  0  0  0  0  0  0  0  0  0
   -0.6232    2.5972    1.0083 H   0  0  0  0  0  0  0  0  0  0  0  0
   -1.2881    2.4072   -0.6353 H   0  0  0  0  0  0  0  0  0  0  0  0
   -2.8846    3.6192    0.8793 H   0  0  0  0  0  0  0  0  0  0  0  0
   -3.5554    2.0975    0.2687 H   0  0  0  0  0  0  0  0  0  0  0  0
   -2.9431    2.1886    1.9292 H   0  0  0  0  0  0  0  0  0  0  0  0
   -4.5067   -1.2801   -0.9022 H   0  0  0  0  0  0  0  0  0  0  0  0
   -3.9349   -2.5793    0.1764 H   0  0  0  0  0  0  0  0  0  0  0  0
   -6.2761   -1.9658    0.7417 H   0  0  0  0  0  0  0  0  0  0  0  0
   -5.1913   -1.5336    2.0746 H   0  0  0  0  0  0  0  0  0  0  0  0
   -5.7939   -0.2797    0.9841 H   0  0  0  0  0  0  0  0  0  0  0  0
  1  2  1  0  0  0  0
  2  3  1  0  0  0  0
  3  4  1  0  0  0  0
  4  5  2  0  0  0  0
  4  6  2  0  0  0  0
  6  7  1  0  0  0  0
  7  8  1  0  0  0  0
  4  9  1  0  0  0  0
  9 10  1  0  0  0  0
 10 11  1  0  0  0  0
 11 12  1  0  0  0  0
 12 13  2  0  0  0  0
 12 14  1  0  0  0  0
 14 15  1  0  0  0  0
 15 16  1  0  0  0  0
 12 17  2  0  0  0  0
 17 18  1  0  0  0  0
 18 19  1  0  0  0  0
  1 20  1  0  0  0  0
  1 21  1  0  0  0  0
  1 22  1  0  0  0  0
  2 23  1  0  0  0  0
  2 24  1  0  0  0  0
  7 25  1  0  0  0  0
  7 26  1  0  0  0  0
  8 27  1  0  0  0  0
  8 28  1  0  0  0  0
  8 29  1  0  0  0  0
 10 30  1  0  0  0  0
 10 31  1  0  0  0  0
 15 32  1  0  0  0  0
 15 33  1  0  0  0  0
 16 34  1  0  0  0  0
 16 35  1  0  0  0  0
 16 36  1  0  0  0  0
 18 37  1  0  0  0  0
 18 38  1  0  0  0  0
 19 39  1  0  0  0  0
 19 40  1  0  0  0  0
 19 41  1  0  0  0  0
M  END
