 xtb: 6.7.1 (edcfbbe)
          04032519423D

 20 20  0     0  0            999 V2000
    0.6558    1.6968   -0.0494 C   0  0  0  0  0  0  0  0  0  0  0  0
    1.4117    0.3880   -0.2959 C   0  0  0  0  0  0  0  0  0  0  0  0
    1.5885    0.2701   -1.3775 H   0  0  0  0  0  0  0  0  0  0  0  0
    0.5589   -0.7986    0.1953 C   0  0  0  0  0  0  0  0  0  0  0  0
    0.4346   -0.7236    1.2826 H   0  0  0  0  0  0  0  0  0  0  0  0
   -0.8076   -0.7410   -0.5061 C   0  0  0  0  0  0  0  0  0  0  0  0
   -0.6553   -0.8598   -1.5855 H   0  0  0  0  0  0  0  0  0  0  0  0
   -1.4676    0.6377   -0.2558 C   0  0  0  0  0  0  0  0  0  0  0  0
   -2.3598    0.7288   -0.8863 H   0  0  0  0  0  0  0  0  0  0  0  0
   -0.6348    1.6942   -0.6411 O   0  0  0  0  0  0  0  0  0  0  0  0
   -1.9349    0.7312    1.0575 O   0  0  0  0  0  0  0  0  0  0  0  0
   -1.6645   -1.7781   -0.1135 O   0  0  0  0  0  0  0  0  0  0  0  0
    1.2336   -2.0180   -0.0030 O   0  0  0  0  0  0  0  0  0  0  0  0
    2.6357    0.4563    0.3914 O   0  0  0  0  0  0  0  0  0  0  0  0
    1.1819    2.5310   -0.5127 H   0  0  0  0  0  0  0  0  0  0  0  0
    0.6080    1.8771    1.0318 H   0  0  0  0  0  0  0  0  0  0  0  0
   -1.2080    0.9209    1.6690 H   0  0  0  0  0  0  0  0  0  0  0  0
   -2.0736   -1.5456    0.7358 H   0  0  0  0  0  0  0  0  0  0  0  0
    1.0826   -2.3417   -0.9021 H   0  0  0  0  0  0  0  0  0  0  0  0
    3.0087   -0.4385    0.4383 H   0  0  0  0  0  0  0  0  0  0  0  0
  1  2  1  0  0  0  0
  2  3  1  0  0  0  0
  2  4  1  0  0  0  0
  4  5  1  0  0  0  0
  4  6  1  0  0  0  0
  6  7  1  0  0  0  0
  6  8  1  0  0  0  0
  8  9  1  0  0  0  0
  1 10  1  0  0  0  0
  8 10  1  0  0  0  0
  8 11  1  0  0  0  0
  6 12  1  0  0  0  0
  4 13  1  0  0  0  0
  2 14  1  0  0  0  0
  1 15  1  0  0  0  0
  1 16  1  0  0  0  0
 11 17  1  0  0  0  0
 12 18  1  0  0  0  0
 13 19  1  0  0  0  0
 14 20  1  0  0  0  0
M  END
