 xtb: 6.7.1 (edcfbbe)
          04032520393D

 22 22  0     0  0            999 V2000
    2.3776   -0.0000    0.4966 C   0  0  0  0  0  0  0  0  0  0  0  0
    1.3715    0.0000   -0.5468 N   0  0  0  0  0  0  0  0  0  0  0  0
    0.5334    1.1917   -0.5542 C   0  0  0  0  0  0  0  0  0  0  0  0
   -0.5333    1.1918    0.5539 C   0  0  0  0  0  0  0  0  0  0  0  0
   -1.3713    0.0000    0.5468 N   0  0  0  0  0  0  0  0  0  0  0  0
   -0.5332   -1.1918    0.5539 C   0  0  0  0  0  0  0  0  0  0  0  0
    0.5334   -1.1917   -0.5542 C   0  0  0  0  0  0  0  0  0  0  0  0
   -2.3780   -0.0000   -0.4960 C   0  0  0  0  0  0  0  0  0  0  0  0
    3.0012   -0.8842    0.3722 H   0  0  0  0  0  0  0  0  0  0  0  0
    1.9748   -0.0001    1.5184 H   0  0  0  0  0  0  0  0  0  0  0  0
    3.0012    0.8841    0.3722 H   0  0  0  0  0  0  0  0  0  0  0  0
    1.1733    2.0700   -0.4556 H   0  0  0  0  0  0  0  0  0  0  0  0
    0.0443    1.2352   -1.5326 H   0  0  0  0  0  0  0  0  0  0  0  0
   -0.0441    1.2355    1.5322 H   0  0  0  0  0  0  0  0  0  0  0  0
   -1.1732    2.0700    0.4551 H   0  0  0  0  0  0  0  0  0  0  0  0
   -0.0441   -1.2355    1.5323 H   0  0  0  0  0  0  0  0  0  0  0  0
   -1.1732   -2.0700    0.4552 H   0  0  0  0  0  0  0  0  0  0  0  0
    1.1733   -2.0700   -0.4556 H   0  0  0  0  0  0  0  0  0  0  0  0
    0.0443   -1.2352   -1.5326 H   0  0  0  0  0  0  0  0  0  0  0  0
   -3.0017    0.8840   -0.3710 H   0  0  0  0  0  0  0  0  0  0  0  0
   -3.0014   -0.8843   -0.3713 H   0  0  0  0  0  0  0  0  0  0  0  0
   -1.9759    0.0002   -1.5181 H   0  0  0  0  0  0  0  0  0  0  0  0
  1  2  1  0  0  0  0
  2  3  1  0  0  0  0
  3  4  1  0  0  0  0
  4  5  1  0  0  0  0
  5  6  1  0  0  0  0
  2  7  1  0  0  0  0
  6  7  1  0  0  0  0
  5  8  1  0  0  0  0
  1  9  1  0  0  0  0
  1 10  1  0  0  0  0
  1 11  1  0  0  0  0
  3 12  1  0  0  0  0
  3 13  1  0  0  0  0
  4 14  1  0  0  0  0
  4 15  1  0  0  0  0
  6 16  1  0  0  0  0
  6 17  1  0  0  0  0
  7 18  1  0  0  0  0
  7 19  1  0  0  0  0
  8 20  1  0  0  0  0
  8 21  1  0  0  0  0
  8 22  1  0  0  0  0
M  END
