 xtb: 6.7.1 (edcfbbe)
          04092505213D

 41 40  0     0  0            999 V2000
    4.0628    1.6129   -1.9728 C   0  0  0  0  0  0  0  0  0  0  0  0
    4.4367    0.8636   -0.7095 C   0  0  0  0  0  0  0  0  0  0  0  0
    3.4235   -0.0754   -0.3239 O   0  0  0  0  0  0  0  0  0  0  0  0
    1.9837    0.3907    0.2078 P   0  0  0  0  0  0  0  0  0  0  0  0
    2.0842    1.9583    1.3798 S   0  0  0  0  0  0  0  0  0  0  0  0
    1.4879   -0.9702    0.8476 O   0  0  0  0  0  0  0  0  0  0  0  0
    1.9345   -1.3907    2.1539 C   0  0  0  0  0  0  0  0  0  0  0  0
    0.9008   -2.3445    2.7165 C   0  0  0  0  0  0  0  0  0  0  0  0
    0.7561    0.5086   -1.5031 S   0  0  0  0  0  0  0  0  0  0  0  0
    0.3779   -1.2298   -1.7984 C   0  0  0  0  0  0  0  0  0  0  0  0
   -0.8217   -2.0063   -0.6384 S   0  0  0  0  0  0  0  0  0  0  0  0
   -1.9925   -0.4102    0.0552 P   0  0  0  0  0  0  0  0  0  0  0  0
   -3.5917   -0.9735    1.0350 S   0  0  0  0  0  0  0  0  0  0  0  0
   -2.2718    0.5587   -1.1795 O   0  0  0  0  0  0  0  0  0  0  0  0
   -3.4233    0.4039   -2.0263 C   0  0  0  0  0  0  0  0  0  0  0  0
   -3.2104   -0.6729   -3.0717 C   0  0  0  0  0  0  0  0  0  0  0  0
   -0.9437    0.4309    0.9136 O   0  0  0  0  0  0  0  0  0  0  0  0
   -1.3959    1.3417    1.9366 C   0  0  0  0  0  0  0  0  0  0  0  0
   -2.0170    2.5887    1.3458 C   0  0  0  0  0  0  0  0  0  0  0  0
    3.1802    2.2266   -1.7906 H   0  0  0  0  0  0  0  0  0  0  0  0
    4.8854    2.2574   -2.2652 H   0  0  0  0  0  0  0  0  0  0  0  0
    3.8445    0.9168   -2.7783 H   0  0  0  0  0  0  0  0  0  0  0  0
    4.5927    1.5623    0.1190 H   0  0  0  0  0  0  0  0  0  0  0  0
    5.3280    0.2507   -0.8505 H   0  0  0  0  0  0  0  0  0  0  0  0
    2.9056   -1.8773    2.0351 H   0  0  0  0  0  0  0  0  0  0  0  0
    2.0514   -0.5042    2.7875 H   0  0  0  0  0  0  0  0  0  0  0  0
    1.2203   -2.6810    3.6973 H   0  0  0  0  0  0  0  0  0  0  0  0
   -0.0624   -1.8463    2.8065 H   0  0  0  0  0  0  0  0  0  0  0  0
    0.7846   -3.2010    2.0578 H   0  0  0  0  0  0  0  0  0  0  0  0
    1.2816   -1.8295   -1.7222 H   0  0  0  0  0  0  0  0  0  0  0  0
   -0.0393   -1.2712   -2.8016 H   0  0  0  0  0  0  0  0  0  0  0  0
   -4.2889    0.1698   -1.3971 H   0  0  0  0  0  0  0  0  0  0  0  0
   -3.5512    1.3862   -2.4832 H   0  0  0  0  0  0  0  0  0  0  0  0
   -3.0762   -1.6412   -2.5915 H   0  0  0  0  0  0  0  0  0  0  0  0
   -4.0826   -0.7194   -3.7160 H   0  0  0  0  0  0  0  0  0  0  0  0
   -2.3348   -0.4432   -3.6730 H   0  0  0  0  0  0  0  0  0  0  0  0
   -2.1101    0.8135    2.5769 H   0  0  0  0  0  0  0  0  0  0  0  0
   -0.4915    1.5773    2.5010 H   0  0  0  0  0  0  0  0  0  0  0  0
   -1.3250    3.0528    0.6468 H   0  0  0  0  0  0  0  0  0  0  0  0
   -2.9380    2.3360    0.8232 H   0  0  0  0  0  0  0  0  0  0  0  0
   -2.2411    3.2870    2.1460 H   0  0  0  0  0  0  0  0  0  0  0  0
  1  2  1  0  0  0  0
  2  3  1  0  0  0  0
  3  4  1  0  0  0  0
  4  5  2  0  0  0  0
  4  6  1  0  0  0  0
  6  7  1  0  0  0  0
  7  8  1  0  0  0  0
  4  9  1  0  0  0  0
  9 10  1  0  0  0  0
 10 11  1  0  0  0  0
 11 12  1  0  0  0  0
 12 13  2  0  0  0  0
 12 14  2  0  0  0  0
 14 15  1  0  0  0  0
 15 16  1  0  0  0  0
 12 17  1  0  0  0  0
 17 18  1  0  0  0  0
 18 19  1  0  0  0  0
  1 20  1  0  0  0  0
  1 21  1  0  0  0  0
  1 22  1  0  0  0  0
  2 23  1  0  0  0  0
  2 24  1  0  0  0  0
  7 25  1  0  0  0  0
  7 26  1  0  0  0  0
  8 27  1  0  0  0  0
  8 28  1  0  0  0  0
  8 29  1  0  0  0  0
 10 30  1  0  0  0  0
 10 31  1  0  0  0  0
 15 32  1  0  0  0  0
 15 33  1  0  0  0  0
 16 34  1  0  0  0  0
 16 35  1  0  0  0  0
 16 36  1  0  0  0  0
 18 37  1  0  0  0  0
 18 38  1  0  0  0  0
 19 39  1  0  0  0  0
 19 40  1  0  0  0  0
 19 41  1  0  0  0  0
M  END
