 xtb: 6.7.1 (edcfbbe)
          04092507313D

 38 37  0     0  0            999 V2000
    2.8025   -4.2718    0.7821 C   0  0  0  0  0  0  0  0  0  0  0  0
    2.3368   -3.3940   -0.3681 C   0  0  0  0  0  0  0  0  0  0  0  0
    2.5425   -1.9990   -0.0741 O   0  0  0  0  0  0  0  0  0  0  0  0
    1.6339   -1.3645    0.6288 C   0  0  0  0  0  0  0  0  0  0  0  0
    0.6178   -1.8730    1.0632 O   0  0  0  0  0  0  0  0  0  0  0  0
    1.9715    0.0982    0.8095 C   0  0  0  0  0  0  0  0  0  0  0  0
    0.8629    0.9443    0.1934 C   0  0  0  0  0  0  0  0  0  0  0  0
    0.6976    0.6637   -0.8558 H   0  0  0  0  0  0  0  0  0  0  0  0
    1.1755    2.4341    0.2549 C   0  0  0  0  0  0  0  0  0  0  0  0
    2.1549    2.8889    0.7951 O   0  0  0  0  0  0  0  0  0  0  0  0
    0.2430    3.1333   -0.3527 O   0  0  0  0  0  0  0  0  0  0  0  0
    0.3905    4.5686   -0.3998 C   0  0  0  0  0  0  0  0  0  0  0  0
    1.2329    4.9875   -1.5937 C   0  0  0  0  0  0  0  0  0  0  0  0
   -0.7408    0.7010    1.0406 S   0  0  0  0  0  0  0  0  0  0  0  0
   -1.5905   -0.7814   -0.2365 P   0  0  0  0  0  0  0  0  0  0  0  0
   -0.6162   -1.2185   -1.8767 S   0  0  0  0  0  0  0  0  0  0  0  0
   -2.0359   -2.0437    0.5908 O   0  0  0  0  0  0  0  0  0  0  0  0
   -2.6051   -1.9492    1.9104 C   0  0  0  0  0  0  0  0  0  0  0  0
   -3.0375   -0.1413   -0.5269 O   0  0  0  0  0  0  0  0  0  0  0  0
   -3.1672    1.0508   -1.3056 C   0  0  0  0  0  0  0  0  0  0  0  0
    2.6999   -5.3141    0.4992 H   0  0  0  0  0  0  0  0  0  0  0  0
    3.8433   -4.0623    1.0132 H   0  0  0  0  0  0  0  0  0  0  0  0
    2.1962   -4.0844    1.6653 H   0  0  0  0  0  0  0  0  0  0  0  0
    1.2739   -3.5507   -0.5772 H   0  0  0  0  0  0  0  0  0  0  0  0
    2.9243   -3.5673   -1.2696 H   0  0  0  0  0  0  0  0  0  0  0  0
    2.9182    0.3184    0.3172 H   0  0  0  0  0  0  0  0  0  0  0  0
    2.0519    0.3271    1.8737 H   0  0  0  0  0  0  0  0  0  0  0  0
   -0.6295    4.9436   -0.4804 H   0  0  0  0  0  0  0  0  0  0  0  0
    0.8487    4.9005    0.5355 H   0  0  0  0  0  0  0  0  0  0  0  0
    0.8036    4.5956   -2.5117 H   0  0  0  0  0  0  0  0  0  0  0  0
    1.2636    6.0706   -1.6467 H   0  0  0  0  0  0  0  0  0  0  0  0
    2.2474    4.6104   -1.4875 H   0  0  0  0  0  0  0  0  0  0  0  0
   -2.9382   -2.9566    2.1458 H   0  0  0  0  0  0  0  0  0  0  0  0
   -3.4409   -1.2517    1.9122 H   0  0  0  0  0  0  0  0  0  0  0  0
   -1.8353   -1.6264    2.6107 H   0  0  0  0  0  0  0  0  0  0  0  0
   -4.2360    1.2134   -1.4162 H   0  0  0  0  0  0  0  0  0  0  0  0
   -2.6980    0.9129   -2.2810 H   0  0  0  0  0  0  0  0  0  0  0  0
   -2.7005    1.8891   -0.7865 H   0  0  0  0  0  0  0  0  0  0  0  0
  1  2  1  0  0  0  0
  2  3  1  0  0  0  0
  3  4  4  0  0  0  0
  4  5  2  0  0  0  0
  4  6  1  0  0  0  0
  6  7  1  0  0  0  0
  7  8  1  0  0  0  0
  7  9  1  0  0  0  0
  9 10  2  0  0  0  0
  9 11  1  0  0  0  0
 11 12  1  0  0  0  0
 12 13  1  0  0  0  0
  7 14  1  0  0  0  0
 14 15  1  0  0  0  0
 15 16  2  0  0  0  0
 15 17  2  0  0  0  0
 17 18  1  0  0  0  0
 15 19  1  0  0  0  0
 19 20  1  0  0  0  0
  1 21  1  0  0  0  0
  1 22  1  0  0  0  0
  1 23  1  0  0  0  0
  2 24  1  0  0  0  0
  2 25  1  0  0  0  0
  6 26  1  0  0  0  0
  6 27  1  0  0  0  0
 12 28  1  0  0  0  0
 12 29  1  0  0  0  0
 13 30  1  0  0  0  0
 13 31  1  0  0  0  0
 13 32  1  0  0  0  0
 18 33  1  0  0  0  0
 18 34  1  0  0  0  0
 18 35  1  0  0  0  0
 20 36  1  0  0  0  0
 20 37  1  0  0  0  0
 20 38  1  0  0  0  0
M  END
