 xtb: 6.7.1 (edcfbbe)
          04092505213D

 41 40  0     0  0            999 V2000
    1.3302    0.2181    2.9562 C   0  0  0  0  0  0  0  0  0  0  0  0
    2.8153   -0.0310    2.7894 C   0  0  0  0  0  0  0  0  0  0  0  0
    3.2778    0.2932    1.4661 O   0  0  0  0  0  0  0  0  0  0  0  0
    2.8559   -0.5432    0.1772 P   0  0  0  0  0  0  0  0  0  0  0  0
    2.7642   -2.4798    0.4146 S   0  0  0  0  0  0  0  0  0  0  0  0
    3.9816   -0.1274   -0.8433 O   0  0  0  0  0  0  0  0  0  0  0  0
    4.2352    1.2480   -1.2334 C   0  0  0  0  0  0  0  0  0  0  0  0
    3.9021    1.4338   -2.7001 C   0  0  0  0  0  0  0  0  0  0  0  0
    1.0876    0.4273   -0.5593 S   0  0  0  0  0  0  0  0  0  0  0  0
    0.0256   -1.0215   -0.7887 C   0  0  0  0  0  0  0  0  0  0  0  0
   -1.2928   -1.1233    0.4394 S   0  0  0  0  0  0  0  0  0  0  0  0
   -2.5324    0.3660   -0.4627 P   0  0  0  0  0  0  0  0  0  0  0  0
   -2.6032    0.3344   -2.4179 S   0  0  0  0  0  0  0  0  0  0  0  0
   -1.9793    1.7637    0.0054 O   0  0  0  0  0  0  0  0  0  0  0  0
   -1.8014    2.1442    1.3917 C   0  0  0  0  0  0  0  0  0  0  0  0
   -2.9727    2.9757    1.8732 C   0  0  0  0  0  0  0  0  0  0  0  0
   -3.8876    0.2403    0.3555 O   0  0  0  0  0  0  0  0  0  0  0  0
   -4.6061   -0.9861    0.5873 C   0  0  0  0  0  0  0  0  0  0  0  0
   -4.9230   -1.7313   -0.6920 C   0  0  0  0  0  0  0  0  0  0  0  0
    1.0607    0.0869    3.9991 H   0  0  0  0  0  0  0  0  0  0  0  0
    1.0811    1.2291    2.6437 H   0  0  0  0  0  0  0  0  0  0  0  0
    0.7617   -0.4931    2.3575 H   0  0  0  0  0  0  0  0  0  0  0  0
    3.0559   -1.0791    2.9919 H   0  0  0  0  0  0  0  0  0  0  0  0
    3.4077    0.6180    3.4361 H   0  0  0  0  0  0  0  0  0  0  0  0
    3.6445    1.9156   -0.6025 H   0  0  0  0  0  0  0  0  0  0  0  0
    5.2976    1.4073   -1.0433 H   0  0  0  0  0  0  0  0  0  0  0  0
    2.8364    1.2984   -2.8700 H   0  0  0  0  0  0  0  0  0  0  0  0
    4.1841    2.4365   -3.0050 H   0  0  0  0  0  0  0  0  0  0  0  0
    4.4473    0.7096   -3.2989 H   0  0  0  0  0  0  0  0  0  0  0  0
    0.6299   -1.9257   -0.6884 H   0  0  0  0  0  0  0  0  0  0  0  0
   -0.4296   -0.9480   -1.7777 H   0  0  0  0  0  0  0  0  0  0  0  0
   -1.6804    1.2414    1.9971 H   0  0  0  0  0  0  0  0  0  0  0  0
   -0.8749    2.7216    1.3953 H   0  0  0  0  0  0  0  0  0  0  0  0
   -2.7864    3.2950    2.8938 H   0  0  0  0  0  0  0  0  0  0  0  0
   -3.0936    3.8496    1.2391 H   0  0  0  0  0  0  0  0  0  0  0  0
   -3.8883    2.3915    1.8400 H   0  0  0  0  0  0  0  0  0  0  0  0
   -4.0095   -1.6086    1.2598 H   0  0  0  0  0  0  0  0  0  0  0  0
   -5.5166   -0.6590    1.0927 H   0  0  0  0  0  0  0  0  0  0  0  0
   -5.4525   -1.0842   -1.3875 H   0  0  0  0  0  0  0  0  0  0  0  0
   -4.0040   -2.0680   -1.1700 H   0  0  0  0  0  0  0  0  0  0  0  0
   -5.5390   -2.5952   -0.4639 H   0  0  0  0  0  0  0  0  0  0  0  0
  1  2  1  0  0  0  0
  2  3  1  0  0  0  0
  3  4  2  0  0  0  0
  4  5  2  0  0  0  0
  4  6  2  0  0  0  0
  6  7  1  0  0  0  0
  7  8  1  0  0  0  0
  4  9  1  0  0  0  0
  9 10  1  0  0  0  0
 10 11  1  0  0  0  0
 11 12  1  0  0  0  0
 12 13  2  0  0  0  0
 12 14  2  0  0  0  0
 14 15  1  0  0  0  0
 15 16  1  0  0  0  0
 12 17  2  0  0  0  0
 17 18  1  0  0  0  0
 18 19  1  0  0  0  0
  1 20  1  0  0  0  0
  1 21  1  0  0  0  0
  1 22  1  0  0  0  0
  2 23  1  0  0  0  0
  2 24  1  0  0  0  0
  7 25  1  0  0  0  0
  7 26  1  0  0  0  0
  8 27  1  0  0  0  0
  8 28  1  0  0  0  0
  8 29  1  0  0  0  0
 10 30  1  0  0  0  0
 10 31  1  0  0  0  0
 15 32  1  0  0  0  0
 15 33  1  0  0  0  0
 16 34  1  0  0  0  0
 16 35  1  0  0  0  0
 16 36  1  0  0  0  0
 18 37  1  0  0  0  0
 18 38  1  0  0  0  0
 19 39  1  0  0  0  0
 19 40  1  0  0  0  0
 19 41  1  0  0  0  0
M  END
