 xtb: 6.7.1 (edcfbbe)
          04092505203D

 41 40  0     0  0            999 V2000
    4.5677   -1.6473   -0.8461 C   0  0  0  0  0  0  0  0  0  0  0  0
    4.6447   -0.2149   -0.3582 C   0  0  0  0  0  0  0  0  0  0  0  0
    3.5106    0.1511    0.4457 O   0  0  0  0  0  0  0  0  0  0  0  0
    2.0424    0.2822   -0.1530 P   0  0  0  0  0  0  0  0  0  0  0  0
    1.9684    1.0332   -1.9662 S   0  0  0  0  0  0  0  0  0  0  0  0
    1.3198    1.0868    1.0084 O   0  0  0  0  0  0  0  0  0  0  0  0
    1.3224    2.5291    1.0542 C   0  0  0  0  0  0  0  0  0  0  0  0
    2.7172    3.1054    1.1677 C   0  0  0  0  0  0  0  0  0  0  0  0
    1.2369   -1.6427    0.1417 S   0  0  0  0  0  0  0  0  0  0  0  0
    0.0899   -1.7396   -1.2750 C   0  0  0  0  0  0  0  0  0  0  0  0
   -1.6179   -2.0815   -0.7841 S   0  0  0  0  0  0  0  0  0  0  0  0
   -2.0631   -0.2557    0.1465 P   0  0  0  0  0  0  0  0  0  0  0  0
   -1.4784    1.4075   -0.7285 S   0  0  0  0  0  0  0  0  0  0  0  0
   -1.4477   -0.5352    1.5782 O   0  0  0  0  0  0  0  0  0  0  0  0
   -1.4438    0.4570    2.6252 C   0  0  0  0  0  0  0  0  0  0  0  0
   -2.6153    0.2507    3.5631 C   0  0  0  0  0  0  0  0  0  0  0  0
   -3.6256   -0.3087    0.4311 O   0  0  0  0  0  0  0  0  0  0  0  0
   -4.5993    0.1638   -0.5167 C   0  0  0  0  0  0  0  0  0  0  0  0
   -4.6451   -0.6961   -1.7628 C   0  0  0  0  0  0  0  0  0  0  0  0
    4.3906   -2.3222   -0.0126 H   0  0  0  0  0  0  0  0  0  0  0  0
    3.7542   -1.7518   -1.5626 H   0  0  0  0  0  0  0  0  0  0  0  0
    5.5013   -1.9100   -1.3331 H   0  0  0  0  0  0  0  0  0  0  0  0
    4.7024    0.4747   -1.2065 H   0  0  0  0  0  0  0  0  0  0  0  0
    5.4959   -0.0605    0.3063 H   0  0  0  0  0  0  0  0  0  0  0  0
    0.8158    2.9002    0.1567 H   0  0  0  0  0  0  0  0  0  0  0  0
    0.7193    2.7612    1.9334 H   0  0  0  0  0  0  0  0  0  0  0  0
    2.6470    4.1784    1.3166 H   0  0  0  0  0  0  0  0  0  0  0  0
    3.2425    2.6540    2.0055 H   0  0  0  0  0  0  0  0  0  0  0  0
    3.2760    2.9125    0.2527 H   0  0  0  0  0  0  0  0  0  0  0  0
    0.3892   -2.5797   -1.8964 H   0  0  0  0  0  0  0  0  0  0  0  0
    0.1419   -0.8003   -1.8329 H   0  0  0  0  0  0  0  0  0  0  0  0
   -0.4885    0.3167    3.1357 H   0  0  0  0  0  0  0  0  0  0  0  0
   -1.4689    1.4515    2.1662 H   0  0  0  0  0  0  0  0  0  0  0  0
   -2.5890   -0.7565    3.9691 H   0  0  0  0  0  0  0  0  0  0  0  0
   -2.5527    0.9690    4.3746 H   0  0  0  0  0  0  0  0  0  0  0  0
   -3.5529    0.3897    3.0307 H   0  0  0  0  0  0  0  0  0  0  0  0
   -5.5400    0.1259    0.0341 H   0  0  0  0  0  0  0  0  0  0  0  0
   -4.3569    1.2004   -0.7724 H   0  0  0  0  0  0  0  0  0  0  0  0
   -3.7195   -0.5850   -2.3262 H   0  0  0  0  0  0  0  0  0  0  0  0
   -4.7677   -1.7425   -1.4954 H   0  0  0  0  0  0  0  0  0  0  0  0
   -5.4758   -0.3812   -2.3862 H   0  0  0  0  0  0  0  0  0  0  0  0
  1  2  1  0  0  0  0
  2  3  1  0  0  0  0
  3  4  2  0  0  0  0
  4  5  2  0  0  0  0
  4  6  2  0  0  0  0
  6  7  1  0  0  0  0
  7  8  1  0  0  0  0
  4  9  1  0  0  0  0
  9 10  1  0  0  0  0
 10 11  1  0  0  0  0
 11 12  1  0  0  0  0
 12 13  2  0  0  0  0
 12 14  2  0  0  0  0
 14 15  1  0  0  0  0
 15 16  1  0  0  0  0
 12 17  2  0  0  0  0
 17 18  1  0  0  0  0
 18 19  1  0  0  0  0
  1 20  1  0  0  0  0
  1 21  1  0  0  0  0
  1 22  1  0  0  0  0
  2 23  1  0  0  0  0
  2 24  1  0  0  0  0
  7 25  1  0  0  0  0
  7 26  1  0  0  0  0
  8 27  1  0  0  0  0
  8 28  1  0  0  0  0
  8 29  1  0  0  0  0
 10 30  1  0  0  0  0
 10 31  1  0  0  0  0
 15 32  1  0  0  0  0
 15 33  1  0  0  0  0
 16 34  1  0  0  0  0
 16 35  1  0  0  0  0
 16 36  1  0  0  0  0
 18 37  1  0  0  0  0
 18 38  1  0  0  0  0
 19 39  1  0  0  0  0
 19 40  1  0  0  0  0
 19 41  1  0  0  0  0
M  END
