 xtb: 6.7.1 (edcfbbe)
          04092505213D

 41 40  0     0  0            999 V2000
    4.9123    1.3555   -0.9784 C   0  0  0  0  0  0  0  0  0  0  0  0
    4.4921   -0.0710   -1.2631 C   0  0  0  0  0  0  0  0  0  0  0  0
    3.6595   -0.6277   -0.2283 O   0  0  0  0  0  0  0  0  0  0  0  0
    2.3303    0.0303    0.3457 P   0  0  0  0  0  0  0  0  0  0  0  0
    2.5033    1.5073    1.6138 S   0  0  0  0  0  0  0  0  0  0  0  0
    1.6606   -1.2109    1.0510 O   0  0  0  0  0  0  0  0  0  0  0  0
    1.5456   -2.5165    0.4273 C   0  0  0  0  0  0  0  0  0  0  0  0
    0.6603   -3.3708    1.3084 C   0  0  0  0  0  0  0  0  0  0  0  0
    1.2093    0.4426   -1.4233 S   0  0  0  0  0  0  0  0  0  0  0  0
    0.0744    1.6401   -0.6707 C   0  0  0  0  0  0  0  0  0  0  0  0
   -0.8920    0.9773    0.7094 S   0  0  0  0  0  0  0  0  0  0  0  0
   -2.2912   -0.1639   -0.4424 P   0  0  0  0  0  0  0  0  0  0  0  0
   -1.5914   -1.7262   -1.3860 S   0  0  0  0  0  0  0  0  0  0  0  0
   -2.9754    0.8558   -1.4331 O   0  0  0  0  0  0  0  0  0  0  0  0
   -3.9615    1.8573   -1.0681 C   0  0  0  0  0  0  0  0  0  0  0  0
   -3.3179    3.1922   -0.7500 C   0  0  0  0  0  0  0  0  0  0  0  0
   -3.4518   -0.4757    0.5981 O   0  0  0  0  0  0  0  0  0  0  0  0
   -3.4024   -1.6011    1.4917 C   0  0  0  0  0  0  0  0  0  0  0  0
   -2.5868   -1.2942    2.7320 C   0  0  0  0  0  0  0  0  0  0  0  0
    4.0425    2.0107   -0.9782 H   0  0  0  0  0  0  0  0  0  0  0  0
    5.3912    1.4226   -0.0044 H   0  0  0  0  0  0  0  0  0  0  0  0
    5.6054    1.6860   -1.7452 H   0  0  0  0  0  0  0  0  0  0  0  0
    5.3516   -0.7433   -1.2880 H   0  0  0  0  0  0  0  0  0  0  0  0
    3.9453   -0.1333   -2.2084 H   0  0  0  0  0  0  0  0  0  0  0  0
    1.1091   -2.3952   -0.5693 H   0  0  0  0  0  0  0  0  0  0  0  0
    2.5495   -2.9344    0.3365 H   0  0  0  0  0  0  0  0  0  0  0  0
   -0.3507   -2.9731    1.3175 H   0  0  0  0  0  0  0  0  0  0  0  0
    0.6363   -4.3799    0.9106 H   0  0  0  0  0  0  0  0  0  0  0  0
    1.0465   -3.3857    2.3234 H   0  0  0  0  0  0  0  0  0  0  0  0
   -0.5877    1.9747   -1.4664 H   0  0  0  0  0  0  0  0  0  0  0  0
    0.6529    2.4644   -0.2544 H   0  0  0  0  0  0  0  0  0  0  0  0
   -4.5958    1.9254   -1.9535 H   0  0  0  0  0  0  0  0  0  0  0  0
   -4.5430    1.4860   -0.2238 H   0  0  0  0  0  0  0  0  0  0  0  0
   -2.6969    3.1213    0.1398 H   0  0  0  0  0  0  0  0  0  0  0  0
   -2.7085    3.5291   -1.5848 H   0  0  0  0  0  0  0  0  0  0  0  0
   -4.1018    3.9218   -0.5718 H   0  0  0  0  0  0  0  0  0  0  0  0
   -4.4477   -1.7899    1.7413 H   0  0  0  0  0  0  0  0  0  0  0  0
   -2.9939   -2.4598    0.9478 H   0  0  0  0  0  0  0  0  0  0  0  0
   -2.9793   -0.4127    3.2317 H   0  0  0  0  0  0  0  0  0  0  0  0
   -2.6327   -2.1413    3.4091 H   0  0  0  0  0  0  0  0  0  0  0  0
   -1.5461   -1.1059    2.4718 H   0  0  0  0  0  0  0  0  0  0  0  0
  1  2  1  0  0  0  0
  2  3  1  0  0  0  0
  3  4  2  0  0  0  0
  4  5  2  0  0  0  0
  4  6  2  0  0  0  0
  6  7  1  0  0  0  0
  7  8  1  0  0  0  0
  4  9  1  0  0  0  0
  9 10  1  0  0  0  0
 10 11  1  0  0  0  0
 11 12  1  0  0  0  0
 12 13  2  0  0  0  0
 12 14  2  0  0  0  0
 14 15  1  0  0  0  0
 15 16  1  0  0  0  0
 12 17  2  0  0  0  0
 17 18  1  0  0  0  0
 18 19  1  0  0  0  0
  1 20  1  0  0  0  0
  1 21  1  0  0  0  0
  1 22  1  0  0  0  0
  2 23  1  0  0  0  0
  2 24  1  0  0  0  0
  7 25  1  0  0  0  0
  7 26  1  0  0  0  0
  8 27  1  0  0  0  0
  8 28  1  0  0  0  0
  8 29  1  0  0  0  0
 10 30  1  0  0  0  0
 10 31  1  0  0  0  0
 15 32  1  0  0  0  0
 15 33  1  0  0  0  0
 16 34  1  0  0  0  0
 16 35  1  0  0  0  0
 16 36  1  0  0  0  0
 18 37  1  0  0  0  0
 18 38  1  0  0  0  0
 19 39  1  0  0  0  0
 19 40  1  0  0  0  0
 19 41  1  0  0  0  0
M  END
