 xtb: 6.7.1 (edcfbbe)
          04092505213D

 41 40  0     0  0            999 V2000
    0.5633   -0.8341    3.3804 C   0  0  0  0  0  0  0  0  0  0  0  0
    1.7382   -0.2595    2.6165 C   0  0  0  0  0  0  0  0  0  0  0  0
    2.0000   -1.1299    1.4845 O   0  0  0  0  0  0  0  0  0  0  0  0
    2.6280   -0.6315    0.1311 P   0  0  0  0  0  0  0  0  0  0  0  0
    2.7990   -2.1455   -1.0972 S   0  0  0  0  0  0  0  0  0  0  0  0
    3.9447    0.0984    0.6398 O   0  0  0  0  0  0  0  0  0  0  0  0
    4.7195    1.0497   -0.1140 C   0  0  0  0  0  0  0  0  0  0  0  0
    5.1412    0.5203   -1.4685 C   0  0  0  0  0  0  0  0  0  0  0  0
    1.4225    0.9868   -0.5673 S   0  0  0  0  0  0  0  0  0  0  0  0
    0.1552   -0.0482   -1.3307 C   0  0  0  0  0  0  0  0  0  0  0  0
   -1.0048   -0.7428   -0.1294 S   0  0  0  0  0  0  0  0  0  0  0  0
   -2.7462    0.4267   -0.5792 P   0  0  0  0  0  0  0  0  0  0  0  0
   -2.5814    1.6782   -2.0754 S   0  0  0  0  0  0  0  0  0  0  0  0
   -3.2185    1.0916    0.7865 O   0  0  0  0  0  0  0  0  0  0  0  0
   -2.7767    2.3902    1.2146 C   0  0  0  0  0  0  0  0  0  0  0  0
   -1.3316    2.3788    1.6699 C   0  0  0  0  0  0  0  0  0  0  0  0
   -3.8767   -0.6385   -0.8439 O   0  0  0  0  0  0  0  0  0  0  0  0
   -4.0501   -1.9074   -0.1695 C   0  0  0  0  0  0  0  0  0  0  0  0
   -4.0899   -1.7704    1.3365 C   0  0  0  0  0  0  0  0  0  0  0  0
    0.3564   -0.2083    4.2426 H   0  0  0  0  0  0  0  0  0  0  0  0
   -0.3128   -0.8766    2.7382 H   0  0  0  0  0  0  0  0  0  0  0  0
    0.7939   -1.8419    3.7129 H   0  0  0  0  0  0  0  0  0  0  0  0
    2.6436   -0.2353    3.2254 H   0  0  0  0  0  0  0  0  0  0  0  0
    1.5242    0.7473    2.2453 H   0  0  0  0  0  0  0  0  0  0  0  0
    4.1263    1.9619   -0.2227 H   0  0  0  0  0  0  0  0  0  0  0  0
    5.5825    1.2411    0.5261 H   0  0  0  0  0  0  0  0  0  0  0  0
    4.2669    0.3516   -2.0961 H   0  0  0  0  0  0  0  0  0  0  0  0
    5.7895    1.2429   -1.9534 H   0  0  0  0  0  0  0  0  0  0  0  0
    5.6706   -0.4235   -1.3595 H   0  0  0  0  0  0  0  0  0  0  0  0
    0.6495   -0.8794   -1.8364 H   0  0  0  0  0  0  0  0  0  0  0  0
   -0.3969    0.5801   -2.0341 H   0  0  0  0  0  0  0  0  0  0  0  0
   -2.9171    3.0962    0.3898 H   0  0  0  0  0  0  0  0  0  0  0  0
   -3.4535    2.6383    2.0335 H   0  0  0  0  0  0  0  0  0  0  0  0
   -0.6726    2.1997    0.8210 H   0  0  0  0  0  0  0  0  0  0  0  0
   -1.0846    3.3436    2.1007 H   0  0  0  0  0  0  0  0  0  0  0  0
   -1.1782    1.6022    2.4146 H   0  0  0  0  0  0  0  0  0  0  0  0
   -4.9974   -2.2731   -0.5687 H   0  0  0  0  0  0  0  0  0  0  0  0
   -3.2381   -2.5710   -0.4788 H   0  0  0  0  0  0  0  0  0  0  0  0
   -4.8549   -1.0568    1.6304 H   0  0  0  0  0  0  0  0  0  0  0  0
   -4.3102   -2.7386    1.7754 H   0  0  0  0  0  0  0  0  0  0  0  0
   -3.1249   -1.4267    1.7045 H   0  0  0  0  0  0  0  0  0  0  0  0
  1  2  1  0  0  0  0
  2  3  1  0  0  0  0
  3  4  2  0  0  0  0
  4  5  2  0  0  0  0
  4  6  2  0  0  0  0
  6  7  1  0  0  0  0
  7  8  1  0  0  0  0
  4  9  1  0  0  0  0
  9 10  1  0  0  0  0
 10 11  1  0  0  0  0
 11 12  1  0  0  0  0
 12 13  2  0  0  0  0
 12 14  2  0  0  0  0
 14 15  1  0  0  0  0
 15 16  1  0  0  0  0
 12 17  2  0  0  0  0
 17 18  1  0  0  0  0
 18 19  1  0  0  0  0
  1 20  1  0  0  0  0
  1 21  1  0  0  0  0
  1 22  1  0  0  0  0
  2 23  1  0  0  0  0
  2 24  1  0  0  0  0
  7 25  1  0  0  0  0
  7 26  1  0  0  0  0
  8 27  1  0  0  0  0
  8 28  1  0  0  0  0
  8 29  1  0  0  0  0
 10 30  1  0  0  0  0
 10 31  1  0  0  0  0
 15 32  1  0  0  0  0
 15 33  1  0  0  0  0
 16 34  1  0  0  0  0
 16 35  1  0  0  0  0
 16 36  1  0  0  0  0
 18 37  1  0  0  0  0
 18 38  1  0  0  0  0
 19 39  1  0  0  0  0
 19 40  1  0  0  0  0
 19 41  1  0  0  0  0
M  END
