 xtb: 6.7.1 (edcfbbe)
          04032519403D

 19 19  0     0  0            999 V2000
   -2.5852    0.5999   -0.0007 C   0  0  0  0  0  0  0  0  0  0  0  0
   -1.2344   -0.0544    0.0002 C   0  0  0  0  0  0  0  0  0  0  0  0
   -1.1493   -1.4432    0.0001 C   0  0  0  0  0  0  0  0  0  0  0  0
    0.0747   -2.0824    0.0002 C   0  0  0  0  0  0  0  0  0  0  0  0
    1.2413   -1.3399   -0.0000 C   0  0  0  0  0  0  0  0  0  0  0  0
    1.1708    0.0453    0.0001 C   0  0  0  0  0  0  0  0  0  0  0  0
   -0.0653    0.7031    0.0009 C   0  0  0  0  0  0  0  0  0  0  0  0
   -0.0485    2.2032    0.0003 C   0  0  0  0  0  0  0  0  0  0  0  0
    2.2950    0.8205   -0.0005 O   0  0  0  0  0  0  0  0  0  0  0  0
   -2.7141    1.2174    0.8866 H   0  0  0  0  0  0  0  0  0  0  0  0
   -2.7058    1.2326   -0.8782 H   0  0  0  0  0  0  0  0  0  0  0  0
   -3.3679   -0.1538   -0.0105 H   0  0  0  0  0  0  0  0  0  0  0  0
   -2.0567   -2.0288   -0.0003 H   0  0  0  0  0  0  0  0  0  0  0  0
    0.1251   -3.1608   -0.0002 H   0  0  0  0  0  0  0  0  0  0  0  0
    2.2030   -1.8333   -0.0006 H   0  0  0  0  0  0  0  0  0  0  0  0
    0.5225    2.5611    0.8560 H   0  0  0  0  0  0  0  0  0  0  0  0
    0.4582    2.5623   -0.8948 H   0  0  0  0  0  0  0  0  0  0  0  0
   -1.0459    2.6242    0.0369 H   0  0  0  0  0  0  0  0  0  0  0  0
    3.0855    0.2617    0.0007 H   0  0  0  0  0  0  0  0  0  0  0  0
  1  2  1  0  0  0  0
  2  3  4  0  0  0  0
  3  4  4  0  0  0  0
  4  5  4  0  0  0  0
  5  6  4  0  0  0  0
  2  7  4  0  0  0  0
  6  7  4  0  0  0  0
  7  8  1  0  0  0  0
  6  9  1  0  0  0  0
  1 10  1  0  0  0  0
  1 11  1  0  0  0  0
  1 12  1  0  0  0  0
  3 13  1  0  0  0  0
  4 14  1  0  0  0  0
  5 15  1  0  0  0  0
  8 16  1  0  0  0  0
  8 17  1  0  0  0  0
  8 18  1  0  0  0  0
  9 19  1  0  0  0  0
M  END
