 xtb: 6.7.1 (edcfbbe)
          04092507313D

 38 37  0     0  0            999 V2000
    3.9482   -3.9428   -0.5636 C   0  0  0  0  0  0  0  0  0  0  0  0
    2.4553   -3.7051   -0.7278 C   0  0  0  0  0  0  0  0  0  0  0  0
    2.0804   -2.4079   -0.2248 O   0  0  0  0  0  0  0  0  0  0  0  0
    2.2248   -1.3654   -1.0173 C   0  0  0  0  0  0  0  0  0  0  0  0
    2.6142   -1.4140   -2.1620 O   0  0  0  0  0  0  0  0  0  0  0  0
    1.8089   -0.0811   -0.3227 C   0  0  0  0  0  0  0  0  0  0  0  0
    0.7246    0.6047   -1.1534 C   0  0  0  0  0  0  0  0  0  0  0  0
    1.1002    0.7770   -2.1664 H   0  0  0  0  0  0  0  0  0  0  0  0
    0.2913    1.9186   -0.5364 C   0  0  0  0  0  0  0  0  0  0  0  0
   -0.8605    2.1332   -0.2088 O   0  0  0  0  0  0  0  0  0  0  0  0
    1.2800    2.7534   -0.4101 O   0  0  0  0  0  0  0  0  0  0  0  0
    1.0402    4.0100    0.2651 C   0  0  0  0  0  0  0  0  0  0  0  0
    1.2280    3.8448    1.7640 C   0  0  0  0  0  0  0  0  0  0  0  0
   -0.7525   -0.4460   -1.3633 S   0  0  0  0  0  0  0  0  0  0  0  0
   -1.7883   -0.1129    0.4688 P   0  0  0  0  0  0  0  0  0  0  0  0
   -0.8188    0.3114    2.1289 S   0  0  0  0  0  0  0  0  0  0  0  0
   -3.1467    0.6471    0.1737 O   0  0  0  0  0  0  0  0  0  0  0  0
   -3.4963    1.9481    0.6502 C   0  0  0  0  0  0  0  0  0  0  0  0
   -2.5006   -1.5474    0.5765 O   0  0  0  0  0  0  0  0  0  0  0  0
   -1.7434   -2.7213    0.8752 C   0  0  0  0  0  0  0  0  0  0  0  0
    4.1873   -4.9521   -0.8818 H   0  0  0  0  0  0  0  0  0  0  0  0
    4.5081   -3.2383   -1.1742 H   0  0  0  0  0  0  0  0  0  0  0  0
    4.2346   -3.8173    0.4770 H   0  0  0  0  0  0  0  0  0  0  0  0
    1.8733   -4.4073   -0.1308 H   0  0  0  0  0  0  0  0  0  0  0  0
    2.1662   -3.7656   -1.7809 H   0  0  0  0  0  0  0  0  0  0  0  0
    2.6725    0.5839   -0.2640 H   0  0  0  0  0  0  0  0  0  0  0  0
    1.4529   -0.3105    0.6827 H   0  0  0  0  0  0  0  0  0  0  0  0
    1.7783    4.6898   -0.1598 H   0  0  0  0  0  0  0  0  0  0  0  0
    0.0271    4.3460    0.0315 H   0  0  0  0  0  0  0  0  0  0  0  0
    2.2403    3.5187    1.9842 H   0  0  0  0  0  0  0  0  0  0  0  0
    1.0427    4.7937    2.2558 H   0  0  0  0  0  0  0  0  0  0  0  0
    0.5324    3.1033    2.1537 H   0  0  0  0  0  0  0  0  0  0  0  0
   -2.9087    2.2023    1.5338 H   0  0  0  0  0  0  0  0  0  0  0  0
   -4.5544    1.9010    0.8988 H   0  0  0  0  0  0  0  0  0  0  0  0
   -3.3133    2.6791   -0.1351 H   0  0  0  0  0  0  0  0  0  0  0  0
   -1.1045   -2.9847    0.0310 H   0  0  0  0  0  0  0  0  0  0  0  0
   -2.4756   -3.5036    1.0574 H   0  0  0  0  0  0  0  0  0  0  0  0
   -1.1310   -2.5574    1.7645 H   0  0  0  0  0  0  0  0  0  0  0  0
  1  2  1  0  0  0  0
  2  3  1  0  0  0  0
  3  4  1  0  0  0  0
  4  5  2  0  0  0  0
  4  6  1  0  0  0  0
  6  7  1  0  0  0  0
  7  8  1  0  0  0  0
  7  9  1  0  0  0  0
  9 10  2  0  0  0  0
  9 11  4  0  0  0  0
 11 12  1  0  0  0  0
 12 13  1  0  0  0  0
  7 14  1  0  0  0  0
 14 15  1  0  0  0  0
 15 16  2  0  0  0  0
 15 17  2  0  0  0  0
 17 18  1  0  0  0  0
 15 19  1  0  0  0  0
 19 20  1  0  0  0  0
  1 21  1  0  0  0  0
  1 22  1  0  0  0  0
  1 23  1  0  0  0  0
  2 24  1  0  0  0  0
  2 25  1  0  0  0  0
  6 26  1  0  0  0  0
  6 27  1  0  0  0  0
 12 28  1  0  0  0  0
 12 29  1  0  0  0  0
 13 30  1  0  0  0  0
 13 31  1  0  0  0  0
 13 32  1  0  0  0  0
 18 33  1  0  0  0  0
 18 34  1  0  0  0  0
 18 35  1  0  0  0  0
 20 36  1  0  0  0  0
 20 37  1  0  0  0  0
 20 38  1  0  0  0  0
M  END
