 xtb: 6.7.1 (edcfbbe)
          04092507313D

 38 37  0     0  0            999 V2000
    2.5292   -3.9058   -0.1446 C   0  0  0  0  0  0  0  0  0  0  0  0
    1.5456   -2.8704    0.3736 C   0  0  0  0  0  0  0  0  0  0  0  0
    1.3223   -1.8580   -0.6236 O   0  0  0  0  0  0  0  0  0  0  0  0
    2.0677   -0.7634   -0.6004 C   0  0  0  0  0  0  0  0  0  0  0  0
    2.8722   -0.4899    0.2614 O   0  0  0  0  0  0  0  0  0  0  0  0
    1.8030    0.1093   -1.8143 C   0  0  0  0  0  0  0  0  0  0  0  0
    0.4923    0.8908   -1.7009 C   0  0  0  0  0  0  0  0  0  0  0  0
    0.3698    1.5038   -2.5998 H   0  0  0  0  0  0  0  0  0  0  0  0
    0.4413    1.8075   -0.4951 C   0  0  0  0  0  0  0  0  0  0  0  0
   -0.5385    1.8664    0.2257 O   0  0  0  0  0  0  0  0  0  0  0  0
    1.5356    2.4944   -0.3428 O   0  0  0  0  0  0  0  0  0  0  0  0
    1.6351    3.3904    0.7849 C   0  0  0  0  0  0  0  0  0  0  0  0
    1.0018    4.7346    0.4675 C   0  0  0  0  0  0  0  0  0  0  0  0
   -0.9804   -0.1743   -1.6700 S   0  0  0  0  0  0  0  0  0  0  0  0
   -1.3807   -0.4893    0.4114 P   0  0  0  0  0  0  0  0  0  0  0  0
   -0.1538   -0.3815    1.9436 S   0  0  0  0  0  0  0  0  0  0  0  0
   -2.8173    0.1827    0.6350 O   0  0  0  0  0  0  0  0  0  0  0  0
   -3.0908    1.4287    1.2713 C   0  0  0  0  0  0  0  0  0  0  0  0
   -1.8291   -2.0185    0.3394 O   0  0  0  0  0  0  0  0  0  0  0  0
   -2.8331   -2.5165   -0.5609 C   0  0  0  0  0  0  0  0  0  0  0  0
    3.5009   -3.4462   -0.3096 H   0  0  0  0  0  0  0  0  0  0  0  0
    2.6325   -4.6958    0.5917 H   0  0  0  0  0  0  0  0  0  0  0  0
    2.1689   -4.3275   -1.0786 H   0  0  0  0  0  0  0  0  0  0  0  0
    1.9127   -2.3893    1.2850 H   0  0  0  0  0  0  0  0  0  0  0  0
    0.5626   -3.3045    0.5630 H   0  0  0  0  0  0  0  0  0  0  0  0
    1.7451   -0.5324   -2.6934 H   0  0  0  0  0  0  0  0  0  0  0  0
    2.6272    0.8176   -1.9052 H   0  0  0  0  0  0  0  0  0  0  0  0
    1.1560    2.9167    1.6466 H   0  0  0  0  0  0  0  0  0  0  0  0
    2.7076    3.4797    0.9559 H   0  0  0  0  0  0  0  0  0  0  0  0
    1.1543    5.4044    1.3071 H   0  0  0  0  0  0  0  0  0  0  0  0
    1.4585    5.1626   -0.4204 H   0  0  0  0  0  0  0  0  0  0  0  0
   -0.0665    4.6184    0.3005 H   0  0  0  0  0  0  0  0  0  0  0  0
   -2.3726    1.6093    2.0716 H   0  0  0  0  0  0  0  0  0  0  0  0
   -4.0970    1.3368    1.6742 H   0  0  0  0  0  0  0  0  0  0  0  0
   -3.0358    2.2346    0.5417 H   0  0  0  0  0  0  0  0  0  0  0  0
   -3.7639   -1.9695   -0.4231 H   0  0  0  0  0  0  0  0  0  0  0  0
   -2.9588   -3.5629   -0.2944 H   0  0  0  0  0  0  0  0  0  0  0  0
   -2.4895   -2.4199   -1.5909 H   0  0  0  0  0  0  0  0  0  0  0  0
  1  2  1  0  0  0  0
  2  3  1  0  0  0  0
  3  4  1  0  0  0  0
  4  5  2  0  0  0  0
  4  6  1  0  0  0  0
  6  7  1  0  0  0  0
  7  8  1  0  0  0  0
  7  9  1  0  0  0  0
  9 10  2  0  0  0  0
  9 11  4  0  0  0  0
 11 12  1  0  0  0  0
 12 13  1  0  0  0  0
  7 14  1  0  0  0  0
 14 15  1  0  0  0  0
 15 16  2  0  0  0  0
 15 17  1  0  0  0  0
 17 18  1  0  0  0  0
 15 19  1  0  0  0  0
 19 20  1  0  0  0  0
  1 21  1  0  0  0  0
  1 22  1  0  0  0  0
  1 23  1  0  0  0  0
  2 24  1  0  0  0  0
  2 25  1  0  0  0  0
  6 26  1  0  0  0  0
  6 27  1  0  0  0  0
 12 28  1  0  0  0  0
 12 29  1  0  0  0  0
 13 30  1  0  0  0  0
 13 31  1  0  0  0  0
 13 32  1  0  0  0  0
 18 33  1  0  0  0  0
 18 34  1  0  0  0  0
 18 35  1  0  0  0  0
 20 36  1  0  0  0  0
 20 37  1  0  0  0  0
 20 38  1  0  0  0  0
M  END
