 xtb: 6.7.1 (edcfbbe)
          04092505213D

 41 40  0     0  0            999 V2000
    5.2386    0.4153    1.6846 C   0  0  0  0  0  0  0  0  0  0  0  0
    4.2802   -0.7557    1.6102 C   0  0  0  0  0  0  0  0  0  0  0  0
    3.8917   -1.0179    0.2377 O   0  0  0  0  0  0  0  0  0  0  0  0
    2.5584   -0.4983   -0.4138 P   0  0  0  0  0  0  0  0  0  0  0  0
    2.4038   -1.1646   -2.2453 S   0  0  0  0  0  0  0  0  0  0  0  0
    2.6887    1.0778   -0.1853 O   0  0  0  0  0  0  0  0  0  0  0  0
    1.6452    2.0394   -0.3957 C   0  0  0  0  0  0  0  0  0  0  0  0
    1.4411    2.3533   -1.8643 C   0  0  0  0  0  0  0  0  0  0  0  0
    1.0209   -1.0880    0.9491 S   0  0  0  0  0  0  0  0  0  0  0  0
   -0.1943   -1.6886   -0.2472 C   0  0  0  0  0  0  0  0  0  0  0  0
   -0.9489   -0.3809   -1.2657 S   0  0  0  0  0  0  0  0  0  0  0  0
   -2.3714    0.3473    0.1134 P   0  0  0  0  0  0  0  0  0  0  0  0
   -3.5728    1.7333   -0.5756 S   0  0  0  0  0  0  0  0  0  0  0  0
   -1.3818    0.7224    1.2939 O   0  0  0  0  0  0  0  0  0  0  0  0
   -1.8093    1.0104    2.6444 C   0  0  0  0  0  0  0  0  0  0  0  0
   -2.2229    2.4603    2.7965 C   0  0  0  0  0  0  0  0  0  0  0  0
   -3.1203   -0.9256    0.7283 O   0  0  0  0  0  0  0  0  0  0  0  0
   -4.3649   -1.3950    0.1867 C   0  0  0  0  0  0  0  0  0  0  0  0
   -4.1728   -2.0758   -1.1536 C   0  0  0  0  0  0  0  0  0  0  0  0
    4.7535    1.3244    1.3400 H   0  0  0  0  0  0  0  0  0  0  0  0
    5.5605    0.5463    2.7131 H   0  0  0  0  0  0  0  0  0  0  0  0
    6.1057    0.2247    1.0583 H   0  0  0  0  0  0  0  0  0  0  0  0
    3.3811   -0.5756    2.2058 H   0  0  0  0  0  0  0  0  0  0  0  0
    4.7579   -1.6809    1.9375 H   0  0  0  0  0  0  0  0  0  0  0  0
    0.7185    1.6703    0.0567 H   0  0  0  0  0  0  0  0  0  0  0  0
    1.9848    2.9216    0.1509 H   0  0  0  0  0  0  0  0  0  0  0  0
    2.3711    2.6998   -2.3071 H   0  0  0  0  0  0  0  0  0  0  0  0
    1.1092    1.4670   -2.4021 H   0  0  0  0  0  0  0  0  0  0  0  0
    0.6831    3.1244   -1.9634 H   0  0  0  0  0  0  0  0  0  0  0  0
   -0.9649   -2.1983    0.3252 H   0  0  0  0  0  0  0  0  0  0  0  0
    0.2968   -2.3559   -0.9541 H   0  0  0  0  0  0  0  0  0  0  0  0
   -2.6262    0.3356    2.9085 H   0  0  0  0  0  0  0  0  0  0  0  0
   -0.9306    0.7771    3.2489 H   0  0  0  0  0  0  0  0  0  0  0  0
   -3.0822    2.6776    2.1653 H   0  0  0  0  0  0  0  0  0  0  0  0
   -2.4863    2.6501    3.8322 H   0  0  0  0  0  0  0  0  0  0  0  0
   -1.4071    3.1172    2.5074 H   0  0  0  0  0  0  0  0  0  0  0  0
   -4.7423   -2.0859    0.9419 H   0  0  0  0  0  0  0  0  0  0  0  0
   -5.0430   -0.5414    0.0869 H   0  0  0  0  0  0  0  0  0  0  0  0
   -5.1260   -2.4612   -1.5007 H   0  0  0  0  0  0  0  0  0  0  0  0
   -3.7979   -1.3575   -1.8827 H   0  0  0  0  0  0  0  0  0  0  0  0
   -3.4639   -2.8959   -1.0717 H   0  0  0  0  0  0  0  0  0  0  0  0
  1  2  1  0  0  0  0
  2  3  1  0  0  0  0
  3  4  2  0  0  0  0
  4  5  2  0  0  0  0
  4  6  2  0  0  0  0
  6  7  1  0  0  0  0
  7  8  1  0  0  0  0
  4  9  1  0  0  0  0
  9 10  1  0  0  0  0
 10 11  1  0  0  0  0
 11 12  1  0  0  0  0
 12 13  2  0  0  0  0
 12 14  2  0  0  0  0
 14 15  1  0  0  0  0
 15 16  1  0  0  0  0
 12 17  1  0  0  0  0
 17 18  1  0  0  0  0
 18 19  1  0  0  0  0
  1 20  1  0  0  0  0
  1 21  1  0  0  0  0
  1 22  1  0  0  0  0
  2 23  1  0  0  0  0
  2 24  1  0  0  0  0
  7 25  1  0  0  0  0
  7 26  1  0  0  0  0
  8 27  1  0  0  0  0
  8 28  1  0  0  0  0
  8 29  1  0  0  0  0
 10 30  1  0  0  0  0
 10 31  1  0  0  0  0
 15 32  1  0  0  0  0
 15 33  1  0  0  0  0
 16 34  1  0  0  0  0
 16 35  1  0  0  0  0
 16 36  1  0  0  0  0
 18 37  1  0  0  0  0
 18 38  1  0  0  0  0
 19 39  1  0  0  0  0
 19 40  1  0  0  0  0
 19 41  1  0  0  0  0
M  END
