 xtb: 6.7.1 (edcfbbe)
          04092505213D

 41 40  0     0  0            999 V2000
    3.3338    0.2264   -2.9256 C   0  0  0  0  0  0  0  0  0  0  0  0
    1.8846    0.4329   -2.5415 C   0  0  0  0  0  0  0  0  0  0  0  0
    1.4551   -0.4892   -1.5193 O   0  0  0  0  0  0  0  0  0  0  0  0
    2.0801   -0.5036   -0.0651 P   0  0  0  0  0  0  0  0  0  0  0  0
    2.6912    1.1956    0.7071 S   0  0  0  0  0  0  0  0  0  0  0  0
    3.2317   -1.5840   -0.2594 O   0  0  0  0  0  0  0  0  0  0  0  0
    4.2969   -1.7627    0.6881 C   0  0  0  0  0  0  0  0  0  0  0  0
    3.8003   -2.2883    2.0197 C   0  0  0  0  0  0  0  0  0  0  0  0
    0.5569   -1.5654    0.9587 S   0  0  0  0  0  0  0  0  0  0  0  0
    0.0501   -0.3015    2.1788 C   0  0  0  0  0  0  0  0  0  0  0  0
   -1.7471   -0.1072    2.2849 S   0  0  0  0  0  0  0  0  0  0  0  0
   -2.1362    0.6381    0.3474 P   0  0  0  0  0  0  0  0  0  0  0  0
   -0.7441    1.6946   -0.5486 S   0  0  0  0  0  0  0  0  0  0  0  0
   -3.4532    1.4125    0.7471 O   0  0  0  0  0  0  0  0  0  0  0  0
   -4.0329    2.4521   -0.0677 C   0  0  0  0  0  0  0  0  0  0  0  0
   -4.8474    1.8815   -1.2103 C   0  0  0  0  0  0  0  0  0  0  0  0
   -2.6939   -0.5922   -0.4957 O   0  0  0  0  0  0  0  0  0  0  0  0
   -1.9846   -1.3171   -1.5152 C   0  0  0  0  0  0  0  0  0  0  0  0
   -2.5604   -0.9909   -2.8799 C   0  0  0  0  0  0  0  0  0  0  0  0
    3.5034   -0.8105   -3.2037 H   0  0  0  0  0  0  0  0  0  0  0  0
    3.5780    0.8732   -3.7625 H   0  0  0  0  0  0  0  0  0  0  0  0
    3.9799    0.4777   -2.0851 H   0  0  0  0  0  0  0  0  0  0  0  0
    1.2101    0.2268   -3.3738 H   0  0  0  0  0  0  0  0  0  0  0  0
    1.7119    1.4511   -2.1772 H   0  0  0  0  0  0  0  0  0  0  0  0
    4.9658   -2.4717    0.1986 H   0  0  0  0  0  0  0  0  0  0  0  0
    4.8036   -0.8016    0.8223 H   0  0  0  0  0  0  0  0  0  0  0  0
    3.1924   -1.5302    2.5125 H   0  0  0  0  0  0  0  0  0  0  0  0
    3.1994   -3.1824    1.8738 H   0  0  0  0  0  0  0  0  0  0  0  0
    4.6500   -2.5224    2.6529 H   0  0  0  0  0  0  0  0  0  0  0  0
    0.5206    0.6481    1.9097 H   0  0  0  0  0  0  0  0  0  0  0  0
    0.3644   -0.6269    3.1673 H   0  0  0  0  0  0  0  0  0  0  0  0
   -4.6570    3.0144    0.6288 H   0  0  0  0  0  0  0  0  0  0  0  0
   -3.2265    3.0929   -0.4406 H   0  0  0  0  0  0  0  0  0  0  0  0
   -5.5779    1.1737   -0.8280 H   0  0  0  0  0  0  0  0  0  0  0  0
   -5.3607    2.6899   -1.7219 H   0  0  0  0  0  0  0  0  0  0  0  0
   -4.1971    1.3699   -1.9160 H   0  0  0  0  0  0  0  0  0  0  0  0
   -0.9218   -1.0629   -1.4795 H   0  0  0  0  0  0  0  0  0  0  0  0
   -2.1120   -2.3721   -1.2656 H   0  0  0  0  0  0  0  0  0  0  0  0
   -2.0800   -1.6166   -3.6253 H   0  0  0  0  0  0  0  0  0  0  0  0
   -3.6306   -1.1777   -2.8898 H   0  0  0  0  0  0  0  0  0  0  0  0
   -2.3753    0.0536   -3.1231 H   0  0  0  0  0  0  0  0  0  0  0  0
  1  2  1  0  0  0  0
  2  3  1  0  0  0  0
  3  4  2  0  0  0  0
  4  5  2  0  0  0  0
  4  6  2  0  0  0  0
  6  7  1  0  0  0  0
  7  8  1  0  0  0  0
  4  9  1  0  0  0  0
  9 10  1  0  0  0  0
 10 11  1  0  0  0  0
 11 12  1  0  0  0  0
 12 13  2  0  0  0  0
 12 14  2  0  0  0  0
 14 15  1  0  0  0  0
 15 16  1  0  0  0  0
 12 17  2  0  0  0  0
 17 18  1  0  0  0  0
 18 19  1  0  0  0  0
  1 20  1  0  0  0  0
  1 21  1  0  0  0  0
  1 22  1  0  0  0  0
  2 23  1  0  0  0  0
  2 24  1  0  0  0  0
  7 25  1  0  0  0  0
  7 26  1  0  0  0  0
  8 27  1  0  0  0  0
  8 28  1  0  0  0  0
  8 29  1  0  0  0  0
 10 30  1  0  0  0  0
 10 31  1  0  0  0  0
 15 32  1  0  0  0  0
 15 33  1  0  0  0  0
 16 34  1  0  0  0  0
 16 35  1  0  0  0  0
 16 36  1  0  0  0  0
 18 37  1  0  0  0  0
 18 38  1  0  0  0  0
 19 39  1  0  0  0  0
 19 40  1  0  0  0  0
 19 41  1  0  0  0  0
M  END
