 xtb: 6.7.1 (edcfbbe)
          04092505213D

 41 40  0     0  0            999 V2000
    3.6760   -2.1911   -2.4966 C   0  0  0  0  0  0  0  0  0  0  0  0
    3.8299   -2.0605   -0.9947 C   0  0  0  0  0  0  0  0  0  0  0  0
    3.8644   -0.6564   -0.6250 O   0  0  0  0  0  0  0  0  0  0  0  0
    2.7378    0.0378    0.2303 P   0  0  0  0  0  0  0  0  0  0  0  0
    3.0892    1.9422    0.4835 S   0  0  0  0  0  0  0  0  0  0  0  0
    2.7460   -0.8651    1.5438 O   0  0  0  0  0  0  0  0  0  0  0  0
    2.2175   -0.4314    2.8090 C   0  0  0  0  0  0  0  0  0  0  0  0
    0.7314   -0.1440    2.7519 C   0  0  0  0  0  0  0  0  0  0  0  0
    0.9197   -0.4950   -0.7773 S   0  0  0  0  0  0  0  0  0  0  0  0
    0.2925    1.1543   -1.1682 C   0  0  0  0  0  0  0  0  0  0  0  0
   -0.9398    1.7588    0.0152 S   0  0  0  0  0  0  0  0  0  0  0  0
   -2.4347    0.3517   -0.5021 P   0  0  0  0  0  0  0  0  0  0  0  0
   -2.6429   -0.0553   -2.4027 S   0  0  0  0  0  0  0  0  0  0  0  0
   -3.7640    0.9604    0.1033 O   0  0  0  0  0  0  0  0  0  0  0  0
   -3.8671    1.7037    1.3408 C   0  0  0  0  0  0  0  0  0  0  0  0
   -3.4973    0.8706    2.5497 C   0  0  0  0  0  0  0  0  0  0  0  0
   -2.0169   -0.8962    0.4059 O   0  0  0  0  0  0  0  0  0  0  0  0
   -2.1665   -2.2563   -0.0320 C   0  0  0  0  0  0  0  0  0  0  0  0
   -3.6043   -2.7130    0.1102 C   0  0  0  0  0  0  0  0  0  0  0  0
    4.4612   -1.6338   -2.9998 H   0  0  0  0  0  0  0  0  0  0  0  0
    3.7471   -3.2386   -2.7715 H   0  0  0  0  0  0  0  0  0  0  0  0
    2.7110   -1.8050   -2.8159 H   0  0  0  0  0  0  0  0  0  0  0  0
    4.7830   -2.4684   -0.6550 H   0  0  0  0  0  0  0  0  0  0  0  0
    3.0101   -2.5512   -0.4658 H   0  0  0  0  0  0  0  0  0  0  0  0
    2.4430   -1.2621    3.4797 H   0  0  0  0  0  0  0  0  0  0  0  0
    2.7664    0.4613    3.1233 H   0  0  0  0  0  0  0  0  0  0  0  0
    0.1934   -0.9886    2.3272 H   0  0  0  0  0  0  0  0  0  0  0  0
    0.3652    0.0477    3.7556 H   0  0  0  0  0  0  0  0  0  0  0  0
    0.5480    0.7387    2.1399 H   0  0  0  0  0  0  0  0  0  0  0  0
   -0.1677    1.0974   -2.1543 H   0  0  0  0  0  0  0  0  0  0  0  0
    1.1161    1.8693   -1.1461 H   0  0  0  0  0  0  0  0  0  0  0  0
   -3.2269    2.5867    1.2648 H   0  0  0  0  0  0  0  0  0  0  0  0
   -4.9148    2.0080    1.3632 H   0  0  0  0  0  0  0  0  0  0  0  0
   -4.1139   -0.0232    2.5941 H   0  0  0  0  0  0  0  0  0  0  0  0
   -2.4509    0.5784    2.4973 H   0  0  0  0  0  0  0  0  0  0  0  0
   -3.6564    1.4603    3.4470 H   0  0  0  0  0  0  0  0  0  0  0  0
   -1.8362   -2.3315   -1.0729 H   0  0  0  0  0  0  0  0  0  0  0  0
   -1.4920   -2.8261    0.6082 H   0  0  0  0  0  0  0  0  0  0  0  0
   -3.9283   -2.6291    1.1439 H   0  0  0  0  0  0  0  0  0  0  0  0
   -4.2464   -2.0910   -0.5131 H   0  0  0  0  0  0  0  0  0  0  0  0
   -3.6908   -3.7456   -0.2125 H   0  0  0  0  0  0  0  0  0  0  0  0
  1  2  1  0  0  0  0
  2  3  1  0  0  0  0
  3  4  2  0  0  0  0
  4  5  2  0  0  0  0
  4  6  2  0  0  0  0
  6  7  1  0  0  0  0
  7  8  1  0  0  0  0
  4  9  1  0  0  0  0
  9 10  1  0  0  0  0
 10 11  1  0  0  0  0
 11 12  1  0  0  0  0
 12 13  2  0  0  0  0
 12 14  2  0  0  0  0
 14 15  1  0  0  0  0
 15 16  1  0  0  0  0
 12 17  1  0  0  0  0
 17 18  1  0  0  0  0
 18 19  1  0  0  0  0
  1 20  1  0  0  0  0
  1 21  1  0  0  0  0
  1 22  1  0  0  0  0
  2 23  1  0  0  0  0
  2 24  1  0  0  0  0
  7 25  1  0  0  0  0
  7 26  1  0  0  0  0
  8 27  1  0  0  0  0
  8 28  1  0  0  0  0
  8 29  1  0  0  0  0
 10 30  1  0  0  0  0
 10 31  1  0  0  0  0
 15 32  1  0  0  0  0
 15 33  1  0  0  0  0
 16 34  1  0  0  0  0
 16 35  1  0  0  0  0
 16 36  1  0  0  0  0
 18 37  1  0  0  0  0
 18 38  1  0  0  0  0
 19 39  1  0  0  0  0
 19 40  1  0  0  0  0
 19 41  1  0  0  0  0
M  END
