 xtb: 6.7.1 (edcfbbe)
          04092505213D

 41 40  0     0  0            999 V2000
    4.2505    1.2606   -2.4172 C   0  0  0  0  0  0  0  0  0  0  0  0
    4.4777    0.6941   -1.0301 C   0  0  0  0  0  0  0  0  0  0  0  0
    3.5096    1.2406   -0.0996 O   0  0  0  0  0  0  0  0  0  0  0  0
    2.2995    0.4141    0.4987 P   0  0  0  0  0  0  0  0  0  0  0  0
    1.3500    1.5209    1.7949 S   0  0  0  0  0  0  0  0  0  0  0  0
    2.9326   -0.9360    1.0749 O   0  0  0  0  0  0  0  0  0  0  0  0
    2.9265   -1.3030    2.4711 C   0  0  0  0  0  0  0  0  0  0  0  0
    1.9528   -2.4356    2.7276 C   0  0  0  0  0  0  0  0  0  0  0  0
    1.3278   -0.3081   -1.2458 S   0  0  0  0  0  0  0  0  0  0  0  0
    0.3886   -1.6818   -0.5237 C   0  0  0  0  0  0  0  0  0  0  0  0
   -0.8658   -1.1549    0.6695 S   0  0  0  0  0  0  0  0  0  0  0  0
   -2.1237   -0.1335   -0.7160 P   0  0  0  0  0  0  0  0  0  0  0  0
   -2.1517   -0.8922   -2.5161 S   0  0  0  0  0  0  0  0  0  0  0  0
   -1.6965    1.3816   -0.7132 O   0  0  0  0  0  0  0  0  0  0  0  0
   -1.8004    2.2457    0.4453 C   0  0  0  0  0  0  0  0  0  0  0  0
   -3.0875    3.0409    0.4036 C   0  0  0  0  0  0  0  0  0  0  0  0
   -3.5141   -0.1132    0.0499 O   0  0  0  0  0  0  0  0  0  0  0  0
   -4.2862   -1.3226    0.2110 C   0  0  0  0  0  0  0  0  0  0  0  0
   -5.6865   -0.9265    0.6319 C   0  0  0  0  0  0  0  0  0  0  0  0
    5.0259    0.8949   -3.0828 H   0  0  0  0  0  0  0  0  0  0  0  0
    3.2789    0.9539   -2.7997 H   0  0  0  0  0  0  0  0  0  0  0  0
    4.2856    2.3460   -2.3855 H   0  0  0  0  0  0  0  0  0  0  0  0
    5.4472    0.9998   -0.6330 H   0  0  0  0  0  0  0  0  0  0  0  0
    4.4031   -0.3955   -1.0262 H   0  0  0  0  0  0  0  0  0  0  0  0
    3.9528   -1.6036    2.6886 H   0  0  0  0  0  0  0  0  0  0  0  0
    2.6652   -0.4231    3.0672 H   0  0  0  0  0  0  0  0  0  0  0  0
    2.1944   -3.2931    2.1052 H   0  0  0  0  0  0  0  0  0  0  0  0
    2.0212   -2.7258    3.7710 H   0  0  0  0  0  0  0  0  0  0  0  0
    0.9331   -2.1142    2.5198 H   0  0  0  0  0  0  0  0  0  0  0  0
    1.0631   -2.3581   -0.0056 H   0  0  0  0  0  0  0  0  0  0  0  0
   -0.1029   -2.1713   -1.3656 H   0  0  0  0  0  0  0  0  0  0  0  0
   -1.7297    1.6409    1.3535 H   0  0  0  0  0  0  0  0  0  0  0  0
   -0.9242    2.8945    0.3850 H   0  0  0  0  0  0  0  0  0  0  0  0
   -3.9440    2.3753    0.4688 H   0  0  0  0  0  0  0  0  0  0  0  0
   -3.1012    3.7302    1.2418 H   0  0  0  0  0  0  0  0  0  0  0  0
   -3.1464    3.6016   -0.5254 H   0  0  0  0  0  0  0  0  0  0  0  0
   -4.2889   -1.8613   -0.7422 H   0  0  0  0  0  0  0  0  0  0  0  0
   -3.7989   -1.9393    0.9711 H   0  0  0  0  0  0  0  0  0  0  0  0
   -6.1458   -0.3067   -0.1331 H   0  0  0  0  0  0  0  0  0  0  0  0
   -6.2819   -1.8228    0.7708 H   0  0  0  0  0  0  0  0  0  0  0  0
   -5.6517   -0.3702    1.5642 H   0  0  0  0  0  0  0  0  0  0  0  0
  1  2  1  0  0  0  0
  2  3  1  0  0  0  0
  3  4  2  0  0  0  0
  4  5  2  0  0  0  0
  4  6  2  0  0  0  0
  6  7  1  0  0  0  0
  7  8  1  0  0  0  0
  4  9  1  0  0  0  0
  9 10  1  0  0  0  0
 10 11  1  0  0  0  0
 11 12  1  0  0  0  0
 12 13  2  0  0  0  0
 12 14  2  0  0  0  0
 14 15  1  0  0  0  0
 15 16  1  0  0  0  0
 12 17  2  0  0  0  0
 17 18  1  0  0  0  0
 18 19  1  0  0  0  0
  1 20  1  0  0  0  0
  1 21  1  0  0  0  0
  1 22  1  0  0  0  0
  2 23  1  0  0  0  0
  2 24  1  0  0  0  0
  7 25  1  0  0  0  0
  7 26  1  0  0  0  0
  8 27  1  0  0  0  0
  8 28  1  0  0  0  0
  8 29  1  0  0  0  0
 10 30  1  0  0  0  0
 10 31  1  0  0  0  0
 15 32  1  0  0  0  0
 15 33  1  0  0  0  0
 16 34  1  0  0  0  0
 16 35  1  0  0  0  0
 16 36  1  0  0  0  0
 18 37  1  0  0  0  0
 18 38  1  0  0  0  0
 19 39  1  0  0  0  0
 19 40  1  0  0  0  0
 19 41  1  0  0  0  0
M  END
