 xtb: 6.7.1 (edcfbbe)
          04032520393D

 16 16  0     0  0            999 V2000
   -1.8351   -1.4537   -0.0001 C   0  0  0  0  0  0  0  0  0  0  0  0
   -0.5283   -0.7117    0.0000 C   0  0  0  0  0  0  0  0  0  0  0  0
    0.6798   -1.3936    0.0002 C   0  0  0  0  0  0  0  0  0  0  0  0
    1.8905   -0.7232   -0.0001 C   0  0  0  0  0  0  0  0  0  0  0  0
    1.9069    0.6605   -0.0000 C   0  0  0  0  0  0  0  0  0  0  0  0
    0.7171    1.3625   -0.0000 C   0  0  0  0  0  0  0  0  0  0  0  0
   -0.4979    0.6868   -0.0001 C   0  0  0  0  0  0  0  0  0  0  0  0
   -1.6328    1.4441    0.0000 O   0  0  0  0  0  0  0  0  0  0  0  0
   -1.6532   -2.5246   -0.0003 H   0  0  0  0  0  0  0  0  0  0  0  0
   -2.4211   -1.2114    0.8866 H   0  0  0  0  0  0  0  0  0  0  0  0
   -2.4211   -1.2110   -0.8865 H   0  0  0  0  0  0  0  0  0  0  0  0
    0.6691   -2.4740   -0.0001 H   0  0  0  0  0  0  0  0  0  0  0  0
    2.8155   -1.2789   -0.0001 H   0  0  0  0  0  0  0  0  0  0  0  0
    2.8439    1.1961    0.0001 H   0  0  0  0  0  0  0  0  0  0  0  0
    0.7012    2.4414    0.0000 H   0  0  0  0  0  0  0  0  0  0  0  0
   -2.4176    0.8766    0.0001 H   0  0  0  0  0  0  0  0  0  0  0  0
  1  2  1  0  0  0  0
  2  3  4  0  0  0  0
  3  4  4  0  0  0  0
  4  5  4  0  0  0  0
  5  6  4  0  0  0  0
  2  7  4  0  0  0  0
  6  7  4  0  0  0  0
  7  8  1  0  0  0  0
  1  9  1  0  0  0  0
  1 10  1  0  0  0  0
  1 11  1  0  0  0  0
  3 12  1  0  0  0  0
  4 13  1  0  0  0  0
  5 14  1  0  0  0  0
  6 15  1  0  0  0  0
  8 16  1  0  0  0  0
M  END
