 xtb: 6.7.1 (edcfbbe)
          04092505213D

 41 40  0     0  0            999 V2000
    2.1076   -2.1269    2.6822 C   0  0  0  0  0  0  0  0  0  0  0  0
    1.2122   -1.7053    1.5339 C   0  0  0  0  0  0  0  0  0  0  0  0
    1.4167   -0.3116    1.2473 O   0  0  0  0  0  0  0  0  0  0  0  0
    2.1675    0.2584   -0.0387 P   0  0  0  0  0  0  0  0  0  0  0  0
    3.1554   -1.0912   -1.0653 S   0  0  0  0  0  0  0  0  0  0  0  0
    2.9379    1.5114    0.5484 O   0  0  0  0  0  0  0  0  0  0  0  0
    3.8856    1.4228    1.6354 C   0  0  0  0  0  0  0  0  0  0  0  0
    5.2448    0.9475    1.1611 C   0  0  0  0  0  0  0  0  0  0  0  0
    0.7668    1.4241   -1.1119 S   0  0  0  0  0  0  0  0  0  0  0  0
    0.2204    0.1229   -2.2513 C   0  0  0  0  0  0  0  0  0  0  0  0
   -0.5190   -1.2873   -1.3829 S   0  0  0  0  0  0  0  0  0  0  0  0
   -2.1136   -0.2303   -0.4816 P   0  0  0  0  0  0  0  0  0  0  0  0
   -2.9066    1.2248   -1.5327 S   0  0  0  0  0  0  0  0  0  0  0  0
   -1.6270    0.1986    0.9751 O   0  0  0  0  0  0  0  0  0  0  0  0
   -1.5096    1.5542    1.4392 C   0  0  0  0  0  0  0  0  0  0  0  0
   -2.6358    1.8639    2.4054 C   0  0  0  0  0  0  0  0  0  0  0  0
   -2.9639   -1.5331   -0.1844 O   0  0  0  0  0  0  0  0  0  0  0  0
   -4.1039   -1.5518    0.7030 C   0  0  0  0  0  0  0  0  0  0  0  0
   -5.3541   -1.0262    0.0256 C   0  0  0  0  0  0  0  0  0  0  0  0
    1.9261   -1.5022    3.5526 H   0  0  0  0  0  0  0  0  0  0  0  0
    1.8978   -3.1615    2.9334 H   0  0  0  0  0  0  0  0  0  0  0  0
    3.1519   -2.0398    2.3892 H   0  0  0  0  0  0  0  0  0  0  0  0
    0.1540   -1.8041    1.7853 H   0  0  0  0  0  0  0  0  0  0  0  0
    1.4282   -2.2934    0.6361 H   0  0  0  0  0  0  0  0  0  0  0  0
    3.9348    2.4436    2.0188 H   0  0  0  0  0  0  0  0  0  0  0  0
    3.4814    0.7593    2.4044 H   0  0  0  0  0  0  0  0  0  0  0  0
    5.6158    1.5999    0.3752 H   0  0  0  0  0  0  0  0  0  0  0  0
    5.9398    0.9583    1.9949 H   0  0  0  0  0  0  0  0  0  0  0  0
    5.1788   -0.0640    0.7650 H   0  0  0  0  0  0  0  0  0  0  0  0
    1.0728   -0.2657   -2.8076 H   0  0  0  0  0  0  0  0  0  0  0  0
   -0.5147    0.5778   -2.9145 H   0  0  0  0  0  0  0  0  0  0  0  0
   -0.5312    1.6171    1.9201 H   0  0  0  0  0  0  0  0  0  0  0  0
   -1.5364    2.2330    0.5808 H   0  0  0  0  0  0  0  0  0  0  0  0
   -2.4990    2.8655    2.7997 H   0  0  0  0  0  0  0  0  0  0  0  0
   -3.5917    1.8165    1.8872 H   0  0  0  0  0  0  0  0  0  0  0  0
   -2.6371    1.1520    3.2263 H   0  0  0  0  0  0  0  0  0  0  0  0
   -4.2094   -2.6061    0.9656 H   0  0  0  0  0  0  0  0  0  0  0  0
   -3.8657   -0.9712    1.5980 H   0  0  0  0  0  0  0  0  0  0  0  0
   -5.2311    0.0210   -0.2442 H   0  0  0  0  0  0  0  0  0  0  0  0
   -5.5545   -1.5922   -0.8802 H   0  0  0  0  0  0  0  0  0  0  0  0
   -6.1968   -1.1224    0.7031 H   0  0  0  0  0  0  0  0  0  0  0  0
  1  2  1  0  0  0  0
  2  3  1  0  0  0  0
  3  4  2  0  0  0  0
  4  5  2  0  0  0  0
  4  6  2  0  0  0  0
  6  7  1  0  0  0  0
  7  8  1  0  0  0  0
  4  9  1  0  0  0  0
  9 10  1  0  0  0  0
 10 11  1  0  0  0  0
 11 12  1  0  0  0  0
 12 13  2  0  0  0  0
 12 14  2  0  0  0  0
 14 15  1  0  0  0  0
 15 16  1  0  0  0  0
 12 17  2  0  0  0  0
 17 18  1  0  0  0  0
 18 19  1  0  0  0  0
  1 20  1  0  0  0  0
  1 21  1  0  0  0  0
  1 22  1  0  0  0  0
  2 23  1  0  0  0  0
  2 24  1  0  0  0  0
  7 25  1  0  0  0  0
  7 26  1  0  0  0  0
  8 27  1  0  0  0  0
  8 28  1  0  0  0  0
  8 29  1  0  0  0  0
 10 30  1  0  0  0  0
 10 31  1  0  0  0  0
 15 32  1  0  0  0  0
 15 33  1  0  0  0  0
 16 34  1  0  0  0  0
 16 35  1  0  0  0  0
 16 36  1  0  0  0  0
 18 37  1  0  0  0  0
 18 38  1  0  0  0  0
 19 39  1  0  0  0  0
 19 40  1  0  0  0  0
 19 41  1  0  0  0  0
M  END
