 xtb: 6.7.1 (edcfbbe)
          04092505213D

 41 40  0     0  0            999 V2000
    3.9560   -1.8912   -2.1619 C   0  0  0  0  0  0  0  0  0  0  0  0
    4.4803   -1.5734   -0.7770 C   0  0  0  0  0  0  0  0  0  0  0  0
    3.4246   -1.2756    0.1560 O   0  0  0  0  0  0  0  0  0  0  0  0
    2.4906    0.0020    0.0144 P   0  0  0  0  0  0  0  0  0  0  0  0
    3.3622    1.6521   -0.5618 S   0  0  0  0  0  0  0  0  0  0  0  0
    1.8685    0.1269    1.4578 O   0  0  0  0  0  0  0  0  0  0  0  0
    1.2962   -0.9982    2.1688 C   0  0  0  0  0  0  0  0  0  0  0  0
    2.2470   -1.4755    3.2466 C   0  0  0  0  0  0  0  0  0  0  0  0
    0.8831   -0.6865   -1.2206 S   0  0  0  0  0  0  0  0  0  0  0  0
    0.2370    0.9542   -1.6127 C   0  0  0  0  0  0  0  0  0  0  0  0
   -0.4701    1.7912   -0.1650 S   0  0  0  0  0  0  0  0  0  0  0  0
   -2.2147    0.6040   -0.0566 P   0  0  0  0  0  0  0  0  0  0  0  0
   -3.0530    0.1742   -1.7787 S   0  0  0  0  0  0  0  0  0  0  0  0
   -2.9633    1.5540    0.9662 O   0  0  0  0  0  0  0  0  0  0  0  0
   -4.1294    1.1477    1.7161 C   0  0  0  0  0  0  0  0  0  0  0  0
   -5.3902    1.2092    0.8766 C   0  0  0  0  0  0  0  0  0  0  0  0
   -1.8487   -0.6730    0.8268 O   0  0  0  0  0  0  0  0  0  0  0  0
   -1.9764   -2.0323    0.3639 C   0  0  0  0  0  0  0  0  0  0  0  0
   -3.3170   -2.6063    0.7767 C   0  0  0  0  0  0  0  0  0  0  0  0
    3.1927   -2.6636   -2.1122 H   0  0  0  0  0  0  0  0  0  0  0  0
    3.5238   -0.9984   -2.6111 H   0  0  0  0  0  0  0  0  0  0  0  0
    4.7766   -2.2336   -2.7842 H   0  0  0  0  0  0  0  0  0  0  0  0
    5.1600   -0.7168   -0.8104 H   0  0  0  0  0  0  0  0  0  0  0  0
    4.9844   -2.4320   -0.3311 H   0  0  0  0  0  0  0  0  0  0  0  0
    0.3636   -0.6185    2.5924 H   0  0  0  0  0  0  0  0  0  0  0  0
    1.0808   -1.7952    1.4518 H   0  0  0  0  0  0  0  0  0  0  0  0
    1.7748   -2.2734    3.8111 H   0  0  0  0  0  0  0  0  0  0  0  0
    3.1650   -1.8456    2.7979 H   0  0  0  0  0  0  0  0  0  0  0  0
    2.4900   -0.6555    3.9166 H   0  0  0  0  0  0  0  0  0  0  0  0
   -0.5336    0.8225   -2.3734 H   0  0  0  0  0  0  0  0  0  0  0  0
    1.0500    1.5847   -1.9728 H   0  0  0  0  0  0  0  0  0  0  0  0
   -3.9635    0.1407    2.1072 H   0  0  0  0  0  0  0  0  0  0  0  0
   -4.1678    1.8611    2.5414 H   0  0  0  0  0  0  0  0  0  0  0  0
   -5.5237    2.2098    0.4739 H   0  0  0  0  0  0  0  0  0  0  0  0
   -5.3297    0.5103    0.0445 H   0  0  0  0  0  0  0  0  0  0  0  0
   -6.2454    0.9536    1.4944 H   0  0  0  0  0  0  0  0  0  0  0  0
   -1.8638   -2.0544   -0.7238 H   0  0  0  0  0  0  0  0  0  0  0  0
   -1.1491   -2.5691    0.8290 H   0  0  0  0  0  0  0  0  0  0  0  0
   -4.1210   -2.0590    0.2882 H   0  0  0  0  0  0  0  0  0  0  0  0
   -3.3663   -3.6465    0.4718 H   0  0  0  0  0  0  0  0  0  0  0  0
   -3.4426   -2.5427    1.8541 H   0  0  0  0  0  0  0  0  0  0  0  0
  1  2  1  0  0  0  0
  2  3  1  0  0  0  0
  3  4  2  0  0  0  0
  4  5  2  0  0  0  0
  4  6  2  0  0  0  0
  6  7  1  0  0  0  0
  7  8  1  0  0  0  0
  4  9  1  0  0  0  0
  9 10  1  0  0  0  0
 10 11  1  0  0  0  0
 11 12  1  0  0  0  0
 12 13  2  0  0  0  0
 12 14  2  0  0  0  0
 14 15  1  0  0  0  0
 15 16  1  0  0  0  0
 12 17  2  0  0  0  0
 17 18  1  0  0  0  0
 18 19  1  0  0  0  0
  1 20  1  0  0  0  0
  1 21  1  0  0  0  0
  1 22  1  0  0  0  0
  2 23  1  0  0  0  0
  2 24  1  0  0  0  0
  7 25  1  0  0  0  0
  7 26  1  0  0  0  0
  8 27  1  0  0  0  0
  8 28  1  0  0  0  0
  8 29  1  0  0  0  0
 10 30  1  0  0  0  0
 10 31  1  0  0  0  0
 15 32  1  0  0  0  0
 15 33  1  0  0  0  0
 16 34  1  0  0  0  0
 16 35  1  0  0  0  0
 16 36  1  0  0  0  0
 18 37  1  0  0  0  0
 18 38  1  0  0  0  0
 19 39  1  0  0  0  0
 19 40  1  0  0  0  0
 19 41  1  0  0  0  0
M  END
