 xtb: 6.7.1 (edcfbbe)
          04092505203D

 41 40  0     0  0            999 V2000
    4.4060    0.5636   -2.0297 C   0  0  0  0  0  0  0  0  0  0  0  0
    4.5969    0.2296   -0.5636 C   0  0  0  0  0  0  0  0  0  0  0  0
    3.4410   -0.4080   -0.0002 O   0  0  0  0  0  0  0  0  0  0  0  0
    2.0675    0.3724    0.2336 P   0  0  0  0  0  0  0  0  0  0  0  0
    2.2637    2.2260    0.8307 S   0  0  0  0  0  0  0  0  0  0  0  0
    1.3278   -0.6290    1.2063 O   0  0  0  0  0  0  0  0  0  0  0  0
    1.3413   -0.4613    2.6374 C   0  0  0  0  0  0  0  0  0  0  0  0
    2.7064   -0.7597    3.2192 C   0  0  0  0  0  0  0  0  0  0  0  0
    0.9519    0.0871   -1.5491 S   0  0  0  0  0  0  0  0  0  0  0  0
    0.5092   -1.6636   -1.4215 C   0  0  0  0  0  0  0  0  0  0  0  0
   -0.7817   -2.0425   -0.1855 S   0  0  0  0  0  0  0  0  0  0  0  0
   -1.9792   -0.3223   -0.3498 P   0  0  0  0  0  0  0  0  0  0  0  0
   -2.5014    0.2761   -2.1469 S   0  0  0  0  0  0  0  0  0  0  0  0
   -1.2020    0.7224    0.5617 O   0  0  0  0  0  0  0  0  0  0  0  0
   -1.4271    2.1402    0.4192 C   0  0  0  0  0  0  0  0  0  0  0  0
   -2.8020    2.5382    0.9086 C   0  0  0  0  0  0  0  0  0  0  0  0
   -3.1989   -0.7027    0.5936 O   0  0  0  0  0  0  0  0  0  0  0  0
   -4.2727   -1.5520    0.1393 C   0  0  0  0  0  0  0  0  0  0  0  0
   -5.4694   -1.3158    1.0386 C   0  0  0  0  0  0  0  0  0  0  0  0
    5.3286    0.9731   -2.4281 H   0  0  0  0  0  0  0  0  0  0  0  0
    4.1342   -0.3258   -2.5921 H   0  0  0  0  0  0  0  0  0  0  0  0
    3.6136    1.3038   -2.1423 H   0  0  0  0  0  0  0  0  0  0  0  0
    4.8048    1.1382    0.0109 H   0  0  0  0  0  0  0  0  0  0  0  0
    5.3983   -0.4955   -0.4154 H   0  0  0  0  0  0  0  0  0  0  0  0
    1.0331    0.5627    2.8706 H   0  0  0  0  0  0  0  0  0  0  0  0
    0.5834   -1.1644    2.9867 H   0  0  0  0  0  0  0  0  0  0  0  0
    2.6527   -0.7158    4.3024 H   0  0  0  0  0  0  0  0  0  0  0  0
    3.0380   -1.7477    2.9115 H   0  0  0  0  0  0  0  0  0  0  0  0
    3.4256   -0.0199    2.8699 H   0  0  0  0  0  0  0  0  0  0  0  0
    1.3809   -2.2510   -1.1431 H   0  0  0  0  0  0  0  0  0  0  0  0
    0.1426   -1.9360   -2.4095 H   0  0  0  0  0  0  0  0  0  0  0  0
   -0.6315    2.5996    1.0095 H   0  0  0  0  0  0  0  0  0  0  0  0
   -1.2936    2.4076   -0.6351 H   0  0  0  0  0  0  0  0  0  0  0  0
   -2.8942    3.6192    0.8758 H   0  0  0  0  0  0  0  0  0  0  0  0
   -3.5619    2.0962    0.2651 H   0  0  0  0  0  0  0  0  0  0  0  0
   -2.9528    2.1893    1.9267 H   0  0  0  0  0  0  0  0  0  0  0  0
   -4.4966   -1.3020   -0.9034 H   0  0  0  0  0  0  0  0  0  0  0  0
   -3.9308   -2.5889    0.1933 H   0  0  0  0  0  0  0  0  0  0  0  0
   -6.2767   -1.9738    0.7347 H   0  0  0  0  0  0  0  0  0  0  0  0
   -5.2031   -1.5239    2.0707 H   0  0  0  0  0  0  0  0  0  0  0  0
   -5.8002   -0.2839    0.9613 H   0  0  0  0  0  0  0  0  0  0  0  0
  1  2  1  0  0  0  0
  2  3  1  0  0  0  0
  3  4  1  0  0  0  0
  4  5  2  0  0  0  0
  4  6  2  0  0  0  0
  6  7  1  0  0  0  0
  7  8  1  0  0  0  0
  4  9  1  0  0  0  0
  9 10  1  0  0  0  0
 10 11  1  0  0  0  0
 11 12  1  0  0  0  0
 12 13  2  0  0  0  0
 12 14  1  0  0  0  0
 14 15  1  0  0  0  0
 15 16  1  0  0  0  0
 12 17  2  0  0  0  0
 17 18  1  0  0  0  0
 18 19  1  0  0  0  0
  1 20  1  0  0  0  0
  1 21  1  0  0  0  0
  1 22  1  0  0  0  0
  2 23  1  0  0  0  0
  2 24  1  0  0  0  0
  7 25  1  0  0  0  0
  7 26  1  0  0  0  0
  8 27  1  0  0  0  0
  8 28  1  0  0  0  0
  8 29  1  0  0  0  0
 10 30  1  0  0  0  0
 10 31  1  0  0  0  0
 15 32  1  0  0  0  0
 15 33  1  0  0  0  0
 16 34  1  0  0  0  0
 16 35  1  0  0  0  0
 16 36  1  0  0  0  0
 18 37  1  0  0  0  0
 18 38  1  0  0  0  0
 19 39  1  0  0  0  0
 19 40  1  0  0  0  0
 19 41  1  0  0  0  0
M  END
