 xtb: 6.7.1 (edcfbbe)
          04092505213D

 41 40  0     0  0            999 V2000
    3.0592    0.5803   -2.9749 C   0  0  0  0  0  0  0  0  0  0  0  0
    2.9401    1.0264   -1.5332 C   0  0  0  0  0  0  0  0  0  0  0  0
    2.5185   -0.1102   -0.7537 O   0  0  0  0  0  0  0  0  0  0  0  0
    2.0382    0.0581    0.7644 P   0  0  0  0  0  0  0  0  0  0  0  0
    0.9288    1.6202    1.1413 S   0  0  0  0  0  0  0  0  0  0  0  0
    3.3491    0.1459    1.6532 O   0  0  0  0  0  0  0  0  0  0  0  0
    4.4060   -0.8451    1.6140 C   0  0  0  0  0  0  0  0  0  0  0  0
    4.3048   -1.7771    2.8045 C   0  0  0  0  0  0  0  0  0  0  0  0
    1.3076   -1.8877    1.0668 S   0  0  0  0  0  0  0  0  0  0  0  0
   -0.1183   -1.8645   -0.0487 C   0  0  0  0  0  0  0  0  0  0  0  0
   -1.5576   -1.0104    0.6650 S   0  0  0  0  0  0  0  0  0  0  0  0
   -2.0732    0.2267   -0.9948 P   0  0  0  0  0  0  0  0  0  0  0  0
   -0.5669    0.7114   -2.1474 S   0  0  0  0  0  0  0  0  0  0  0  0
   -2.9557    1.4057   -0.4102 O   0  0  0  0  0  0  0  0  0  0  0  0
   -2.4734    2.4884    0.4066 C   0  0  0  0  0  0  0  0  0  0  0  0
   -2.7179    2.2048    1.8750 C   0  0  0  0  0  0  0  0  0  0  0  0
   -3.1372   -0.5674   -1.8470 O   0  0  0  0  0  0  0  0  0  0  0  0
   -4.5463   -0.7064   -1.5405 C   0  0  0  0  0  0  0  0  0  0  0  0
   -4.7943   -1.4351   -0.2369 C   0  0  0  0  0  0  0  0  0  0  0  0
    2.0802    0.2896   -3.3480 H   0  0  0  0  0  0  0  0  0  0  0  0
    3.4359    1.4045   -3.5711 H   0  0  0  0  0  0  0  0  0  0  0  0
    3.7373   -0.2647   -3.0503 H   0  0  0  0  0  0  0  0  0  0  0  0
    2.1927    1.8192   -1.4255 H   0  0  0  0  0  0  0  0  0  0  0  0
    3.8960    1.3804   -1.1364 H   0  0  0  0  0  0  0  0  0  0  0  0
    4.3475   -1.3950    0.6713 H   0  0  0  0  0  0  0  0  0  0  0  0
    5.3281   -0.2619    1.6466 H   0  0  0  0  0  0  0  0  0  0  0  0
    3.3856   -2.3570    2.7569 H   0  0  0  0  0  0  0  0  0  0  0  0
    5.1539   -2.4532    2.7981 H   0  0  0  0  0  0  0  0  0  0  0  0
    4.3096   -1.2017    3.7260 H   0  0  0  0  0  0  0  0  0  0  0  0
   -0.3787   -2.9069   -0.2114 H   0  0  0  0  0  0  0  0  0  0  0  0
    0.1552   -1.3661   -0.9822 H   0  0  0  0  0  0  0  0  0  0  0  0
   -1.4098    2.6518    0.2120 H   0  0  0  0  0  0  0  0  0  0  0  0
   -3.0420    3.3576    0.0706 H   0  0  0  0  0  0  0  0  0  0  0  0
   -3.7682    1.9862    2.0462 H   0  0  0  0  0  0  0  0  0  0  0  0
   -2.1164    1.3604    2.2037 H   0  0  0  0  0  0  0  0  0  0  0  0
   -2.4300    3.0773    2.4520 H   0  0  0  0  0  0  0  0  0  0  0  0
   -4.9896    0.2906   -1.5221 H   0  0  0  0  0  0  0  0  0  0  0  0
   -4.9288   -1.2677   -2.3944 H   0  0  0  0  0  0  0  0  0  0  0  0
   -4.4118   -0.8556    0.6012 H   0  0  0  0  0  0  0  0  0  0  0  0
   -5.8634   -1.5756   -0.1108 H   0  0  0  0  0  0  0  0  0  0  0  0
   -4.3044   -2.4052   -0.2424 H   0  0  0  0  0  0  0  0  0  0  0  0
  1  2  1  0  0  0  0
  2  3  1  0  0  0  0
  3  4  1  0  0  0  0
  4  5  2  0  0  0  0
  4  6  2  0  0  0  0
  6  7  1  0  0  0  0
  7  8  1  0  0  0  0
  4  9  1  0  0  0  0
  9 10  1  0  0  0  0
 10 11  1  0  0  0  0
 11 12  1  0  0  0  0
 12 13  2  0  0  0  0
 12 14  2  0  0  0  0
 14 15  1  0  0  0  0
 15 16  1  0  0  0  0
 12 17  2  0  0  0  0
 17 18  1  0  0  0  0
 18 19  1  0  0  0  0
  1 20  1  0  0  0  0
  1 21  1  0  0  0  0
  1 22  1  0  0  0  0
  2 23  1  0  0  0  0
  2 24  1  0  0  0  0
  7 25  1  0  0  0  0
  7 26  1  0  0  0  0
  8 27  1  0  0  0  0
  8 28  1  0  0  0  0
  8 29  1  0  0  0  0
 10 30  1  0  0  0  0
 10 31  1  0  0  0  0
 15 32  1  0  0  0  0
 15 33  1  0  0  0  0
 16 34  1  0  0  0  0
 16 35  1  0  0  0  0
 16 36  1  0  0  0  0
 18 37  1  0  0  0  0
 18 38  1  0  0  0  0
 19 39  1  0  0  0  0
 19 40  1  0  0  0  0
 19 41  1  0  0  0  0
M  END
