 xtb: 6.7.1 (edcfbbe)
          04092507313D

 38 37  0     0  0            999 V2000
    2.1235   -3.2396   -2.8324 C   0  0  0  0  0  0  0  0  0  0  0  0
    3.0892   -3.0536   -1.6727 C   0  0  0  0  0  0  0  0  0  0  0  0
    2.8895   -1.7663   -1.0574 O   0  0  0  0  0  0  0  0  0  0  0  0
    2.0411   -1.6723   -0.0550 C   0  0  0  0  0  0  0  0  0  0  0  0
    1.4585   -2.6054    0.4512 O   0  0  0  0  0  0  0  0  0  0  0  0
    1.8510   -0.2277    0.3705 C   0  0  0  0  0  0  0  0  0  0  0  0
    0.9868    0.4751   -0.6777 C   0  0  0  0  0  0  0  0  0  0  0  0
    1.5520    0.5945   -1.6072 H   0  0  0  0  0  0  0  0  0  0  0  0
    0.4938    1.8422   -0.2328 C   0  0  0  0  0  0  0  0  0  0  0  0
   -0.6265    2.2438   -0.4797 O   0  0  0  0  0  0  0  0  0  0  0  0
    1.4143    2.5157    0.3959 O   0  0  0  0  0  0  0  0  0  0  0  0
    1.0644    3.8216    0.9036 C   0  0  0  0  0  0  0  0  0  0  0  0
    2.3369    4.4946    1.3759 C   0  0  0  0  0  0  0  0  0  0  0  0
   -0.4731   -0.5062   -1.1653 S   0  0  0  0  0  0  0  0  0  0  0  0
   -1.7926   -0.0600    0.4392 P   0  0  0  0  0  0  0  0  0  0  0  0
   -1.0919    0.6252    2.1341 S   0  0  0  0  0  0  0  0  0  0  0  0
   -2.9939    0.7984   -0.1157 O   0  0  0  0  0  0  0  0  0  0  0  0
   -3.6882    0.4781   -1.3368 C   0  0  0  0  0  0  0  0  0  0  0  0
   -2.5251   -1.4802    0.6030 O   0  0  0  0  0  0  0  0  0  0  0  0
   -1.8734   -2.5777    1.2499 C   0  0  0  0  0  0  0  0  0  0  0  0
    2.2964   -4.2065   -3.2928 H   0  0  0  0  0  0  0  0  0  0  0  0
    1.0969   -3.1930   -2.4754 H   0  0  0  0  0  0  0  0  0  0  0  0
    2.2699   -2.4583   -3.5726 H   0  0  0  0  0  0  0  0  0  0  0  0
    4.1247   -3.0423   -2.0131 H   0  0  0  0  0  0  0  0  0  0  0  0
    2.9443   -3.8289   -0.9154 H   0  0  0  0  0  0  0  0  0  0  0  0
    2.8145    0.2766    0.4288 H   0  0  0  0  0  0  0  0  0  0  0  0
    1.3607   -0.2096    1.3455 H   0  0  0  0  0  0  0  0  0  0  0  0
    0.5711    4.3824    0.1040 H   0  0  0  0  0  0  0  0  0  0  0  0
    0.3490    3.6779    1.7197 H   0  0  0  0  0  0  0  0  0  0  0  0
    2.0943    5.4751    1.7713 H   0  0  0  0  0  0  0  0  0  0  0  0
    2.8030    3.9002    2.1555 H   0  0  0  0  0  0  0  0  0  0  0  0
    3.0323    4.6028    0.5490 H   0  0  0  0  0  0  0  0  0  0  0  0
   -2.9917    0.5035   -2.1748 H   0  0  0  0  0  0  0  0  0  0  0  0
   -4.4422    1.2537   -1.4416 H   0  0  0  0  0  0  0  0  0  0  0  0
   -4.1471   -0.5058   -1.2560 H   0  0  0  0  0  0  0  0  0  0  0  0
   -0.9328   -2.8205    0.7531 H   0  0  0  0  0  0  0  0  0  0  0  0
   -2.5684   -3.4100    1.1832 H   0  0  0  0  0  0  0  0  0  0  0  0
   -1.6727   -2.3261    2.2920 H   0  0  0  0  0  0  0  0  0  0  0  0
  1  2  1  0  0  0  0
  2  3  1  0  0  0  0
  3  4  1  0  0  0  0
  4  5  2  0  0  0  0
  4  6  1  0  0  0  0
  6  7  1  0  0  0  0
  7  8  1  0  0  0  0
  7  9  1  0  0  0  0
  9 10  2  0  0  0  0
  9 11  4  0  0  0  0
 11 12  1  0  0  0  0
 12 13  1  0  0  0  0
  7 14  1  0  0  0  0
 14 15  1  0  0  0  0
 15 16  2  0  0  0  0
 15 17  2  0  0  0  0
 17 18  1  0  0  0  0
 15 19  1  0  0  0  0
 19 20  1  0  0  0  0
  1 21  1  0  0  0  0
  1 22  1  0  0  0  0
  1 23  1  0  0  0  0
  2 24  1  0  0  0  0
  2 25  1  0  0  0  0
  6 26  1  0  0  0  0
  6 27  1  0  0  0  0
 12 28  1  0  0  0  0
 12 29  1  0  0  0  0
 13 30  1  0  0  0  0
 13 31  1  0  0  0  0
 13 32  1  0  0  0  0
 18 33  1  0  0  0  0
 18 34  1  0  0  0  0
 18 35  1  0  0  0  0
 20 36  1  0  0  0  0
 20 37  1  0  0  0  0
 20 38  1  0  0  0  0
M  END
