 xtb: 6.7.1 (edcfbbe)
          04092507313D

 38 37  0     0  0            999 V2000
    3.9288   -4.0679   -0.6339 C   0  0  0  0  0  0  0  0  0  0  0  0
    2.4500   -3.7827   -0.8427 C   0  0  0  0  0  0  0  0  0  0  0  0
    2.0671   -2.5432   -0.2153 O   0  0  0  0  0  0  0  0  0  0  0  0
    2.2742   -1.4210   -0.8735 C   0  0  0  0  0  0  0  0  0  0  0  0
    2.7325   -1.3480   -1.9910 O   0  0  0  0  0  0  0  0  0  0  0  0
    1.8351   -0.2141   -0.0634 C   0  0  0  0  0  0  0  0  0  0  0  0
    0.8502    0.6083   -0.8928 C   0  0  0  0  0  0  0  0  0  0  0  0
    1.3144    0.8667   -1.8495 H   0  0  0  0  0  0  0  0  0  0  0  0
    0.4207    1.8736   -0.1794 C   0  0  0  0  0  0  0  0  0  0  0  0
   -0.7443    2.1133    0.0748 O   0  0  0  0  0  0  0  0  0  0  0  0
    1.4310    2.6325    0.1280 O   0  0  0  0  0  0  0  0  0  0  0  0
    1.1756    3.8676    0.8356 C   0  0  0  0  0  0  0  0  0  0  0  0
    0.8021    4.9797   -0.1297 C   0  0  0  0  0  0  0  0  0  0  0  0
   -0.6458   -0.3405   -1.3309 S   0  0  0  0  0  0  0  0  0  0  0  0
   -1.8172   -0.1461    0.4366 P   0  0  0  0  0  0  0  0  0  0  0  0
   -0.9684    0.0508    2.2031 S   0  0  0  0  0  0  0  0  0  0  0  0
   -3.1118    0.7103    0.1191 O   0  0  0  0  0  0  0  0  0  0  0  0
   -3.4478    1.9672    0.7102 C   0  0  0  0  0  0  0  0  0  0  0  0
   -2.5977   -1.5448    0.3327 O   0  0  0  0  0  0  0  0  0  0  0  0
   -1.9209   -2.7812    0.5651 C   0  0  0  0  0  0  0  0  0  0  0  0
    4.1682   -5.0400   -1.0520 H   0  0  0  0  0  0  0  0  0  0  0  0
    4.5296   -3.3114   -1.1334 H   0  0  0  0  0  0  0  0  0  0  0  0
    4.1642   -4.0656    0.4268 H   0  0  0  0  0  0  0  0  0  0  0  0
    1.8279   -4.5355   -0.3586 H   0  0  0  0  0  0  0  0  0  0  0  0
    2.2144   -3.7184   -1.9089 H   0  0  0  0  0  0  0  0  0  0  0  0
    2.7092    0.4038    0.1506 H   0  0  0  0  0  0  0  0  0  0  0  0
    1.3859   -0.5477    0.8730 H   0  0  0  0  0  0  0  0  0  0  0  0
    0.3786    3.6912    1.5629 H   0  0  0  0  0  0  0  0  0  0  0  0
    2.1154    4.0791    1.3448 H   0  0  0  0  0  0  0  0  0  0  0  0
   -0.1327    4.7451   -0.6336 H   0  0  0  0  0  0  0  0  0  0  0  0
    0.6798    5.9048    0.4236 H   0  0  0  0  0  0  0  0  0  0  0  0
    1.5833    5.1080   -0.8737 H   0  0  0  0  0  0  0  0  0  0  0  0
   -4.5233    1.9438    0.8720 H   0  0  0  0  0  0  0  0  0  0  0  0
   -3.1744    2.7691    0.0273 H   0  0  0  0  0  0  0  0  0  0  0  0
   -2.9232    2.0961    1.6583 H   0  0  0  0  0  0  0  0  0  0  0  0
   -1.2209   -2.9881   -0.2456 H   0  0  0  0  0  0  0  0  0  0  0  0
   -2.6992   -3.5391    0.5989 H   0  0  0  0  0  0  0  0  0  0  0  0
   -1.3843   -2.7427    1.5156 H   0  0  0  0  0  0  0  0  0  0  0  0
  1  2  1  0  0  0  0
  2  3  1  0  0  0  0
  3  4  1  0  0  0  0
  4  5  2  0  0  0  0
  4  6  1  0  0  0  0
  6  7  1  0  0  0  0
  7  8  1  0  0  0  0
  7  9  1  0  0  0  0
  9 10  2  0  0  0  0
  9 11  4  0  0  0  0
 11 12  1  0  0  0  0
 12 13  1  0  0  0  0
  7 14  1  0  0  0  0
 14 15  1  0  0  0  0
 15 16  2  0  0  0  0
 15 17  2  0  0  0  0
 17 18  1  0  0  0  0
 15 19  1  0  0  0  0
 19 20  1  0  0  0  0
  1 21  1  0  0  0  0
  1 22  1  0  0  0  0
  1 23  1  0  0  0  0
  2 24  1  0  0  0  0
  2 25  1  0  0  0  0
  6 26  1  0  0  0  0
  6 27  1  0  0  0  0
 12 28  1  0  0  0  0
 12 29  1  0  0  0  0
 13 30  1  0  0  0  0
 13 31  1  0  0  0  0
 13 32  1  0  0  0  0
 18 33  1  0  0  0  0
 18 34  1  0  0  0  0
 18 35  1  0  0  0  0
 20 36  1  0  0  0  0
 20 37  1  0  0  0  0
 20 38  1  0  0  0  0
M  END
