 xtb: 6.7.1 (edcfbbe)
          04092505213D

 41 40  0     0  0            999 V2000
    3.2277   -0.8670   -3.1684 C   0  0  0  0  0  0  0  0  0  0  0  0
    4.0894   -0.7369   -1.9306 C   0  0  0  0  0  0  0  0  0  0  0  0
    3.5576    0.1994   -0.9726 O   0  0  0  0  0  0  0  0  0  0  0  0
    2.0725    0.1967   -0.4080 P   0  0  0  0  0  0  0  0  0  0  0  0
    0.7107    1.0119   -1.5558 S   0  0  0  0  0  0  0  0  0  0  0  0
    2.2276    1.0657    0.8958 O   0  0  0  0  0  0  0  0  0  0  0  0
    3.2299    0.8790    1.9256 C   0  0  0  0  0  0  0  0  0  0  0  0
    2.6750    0.0778    3.0876 C   0  0  0  0  0  0  0  0  0  0  0  0
    1.8524   -1.8484    0.1546 S   0  0  0  0  0  0  0  0  0  0  0  0
    0.2016   -1.8360    0.8971 C   0  0  0  0  0  0  0  0  0  0  0  0
   -1.1381   -1.6063   -0.3148 S   0  0  0  0  0  0  0  0  0  0  0  0
   -1.9515    0.1935    0.4297 P   0  0  0  0  0  0  0  0  0  0  0  0
   -0.9242    1.1986    1.7543 S   0  0  0  0  0  0  0  0  0  0  0  0
   -3.2991   -0.4462    1.0255 O   0  0  0  0  0  0  0  0  0  0  0  0
   -4.0496    0.1831    2.0793 C   0  0  0  0  0  0  0  0  0  0  0  0
   -4.7903    1.4129    1.5928 C   0  0  0  0  0  0  0  0  0  0  0  0
   -2.3986    1.0953   -0.7914 O   0  0  0  0  0  0  0  0  0  0  0  0
   -3.3350    0.6859   -1.8164 C   0  0  0  0  0  0  0  0  0  0  0  0
   -2.6348    0.0034   -2.9743 C   0  0  0  0  0  0  0  0  0  0  0  0
    2.2557   -1.2839   -2.9075 H   0  0  0  0  0  0  0  0  0  0  0  0
    3.0696    0.1074   -3.6249 H   0  0  0  0  0  0  0  0  0  0  0  0
    3.7163   -1.5248   -3.8798 H   0  0  0  0  0  0  0  0  0  0  0  0
    5.0720   -0.3258   -2.1693 H   0  0  0  0  0  0  0  0  0  0  0  0
    4.1999   -1.7040   -1.4327 H   0  0  0  0  0  0  0  0  0  0  0  0
    4.1077    0.4016    1.4863 H   0  0  0  0  0  0  0  0  0  0  0  0
    3.4768    1.8962    2.2336 H   0  0  0  0  0  0  0  0  0  0  0  0
    2.5424   -0.9659    2.8135 H   0  0  0  0  0  0  0  0  0  0  0  0
    3.3684    0.1376    3.9203 H   0  0  0  0  0  0  0  0  0  0  0  0
    1.7162    0.4928    3.3921 H   0  0  0  0  0  0  0  0  0  0  0  0
    0.1369   -1.0371    1.6405 H   0  0  0  0  0  0  0  0  0  0  0  0
    0.0814   -2.8164    1.3504 H   0  0  0  0  0  0  0  0  0  0  0  0
   -4.7340   -0.5964    2.4168 H   0  0  0  0  0  0  0  0  0  0  0  0
   -3.3576    0.4475    2.8853 H   0  0  0  0  0  0  0  0  0  0  0  0
   -4.0765    2.1589    1.2428 H   0  0  0  0  0  0  0  0  0  0  0  0
   -5.4627    1.1577    0.7778 H   0  0  0  0  0  0  0  0  0  0  0  0
   -5.3638    1.8338    2.4127 H   0  0  0  0  0  0  0  0  0  0  0  0
   -4.0887    0.0336   -1.3672 H   0  0  0  0  0  0  0  0  0  0  0  0
   -3.7914    1.6257   -2.1325 H   0  0  0  0  0  0  0  0  0  0  0  0
   -3.3269   -0.0856   -3.8055 H   0  0  0  0  0  0  0  0  0  0  0  0
   -1.7734    0.5929   -3.2805 H   0  0  0  0  0  0  0  0  0  0  0  0
   -2.2892   -0.9879   -2.6900 H   0  0  0  0  0  0  0  0  0  0  0  0
  1  2  1  0  0  0  0
  2  3  1  0  0  0  0
  3  4  2  0  0  0  0
  4  5  2  0  0  0  0
  4  6  2  0  0  0  0
  6  7  1  0  0  0  0
  7  8  1  0  0  0  0
  4  9  1  0  0  0  0
  9 10  1  0  0  0  0
 10 11  1  0  0  0  0
 11 12  1  0  0  0  0
 12 13  2  0  0  0  0
 12 14  1  0  0  0  0
 14 15  1  0  0  0  0
 15 16  1  0  0  0  0
 12 17  2  0  0  0  0
 17 18  1  0  0  0  0
 18 19  1  0  0  0  0
  1 20  1  0  0  0  0
  1 21  1  0  0  0  0
  1 22  1  0  0  0  0
  2 23  1  0  0  0  0
  2 24  1  0  0  0  0
  7 25  1  0  0  0  0
  7 26  1  0  0  0  0
  8 27  1  0  0  0  0
  8 28  1  0  0  0  0
  8 29  1  0  0  0  0
 10 30  1  0  0  0  0
 10 31  1  0  0  0  0
 15 32  1  0  0  0  0
 15 33  1  0  0  0  0
 16 34  1  0  0  0  0
 16 35  1  0  0  0  0
 16 36  1  0  0  0  0
 18 37  1  0  0  0  0
 18 38  1  0  0  0  0
 19 39  1  0  0  0  0
 19 40  1  0  0  0  0
 19 41  1  0  0  0  0
M  END
