 xtb: 6.7.1 (edcfbbe)
          04092505203D

 41 40  0     0  0            999 V2000
    4.1509   -1.4648   -2.3833 C   0  0  0  0  0  0  0  0  0  0  0  0
    4.3785   -1.6162   -0.8932 C   0  0  0  0  0  0  0  0  0  0  0  0
    3.1423   -1.6381   -0.1583 O   0  0  0  0  0  0  0  0  0  0  0  0
    2.2061   -0.3587   -0.0220 P   0  0  0  0  0  0  0  0  0  0  0  0
    3.1821    1.3281    0.2151 S   0  0  0  0  0  0  0  0  0  0  0  0
    1.2591   -0.8128    1.1645 O   0  0  0  0  0  0  0  0  0  0  0  0
    1.6070   -0.6143    2.5555 C   0  0  0  0  0  0  0  0  0  0  0  0
    0.6087    0.3284    3.1971 C   0  0  0  0  0  0  0  0  0  0  0  0
    0.8476   -0.5120   -1.6296 S   0  0  0  0  0  0  0  0  0  0  0  0
    0.2882    1.2150   -1.6014 C   0  0  0  0  0  0  0  0  0  0  0  0
   -0.5251    1.6697   -0.0557 S   0  0  0  0  0  0  0  0  0  0  0  0
   -2.2397    0.4065   -0.2623 P   0  0  0  0  0  0  0  0  0  0  0  0
   -2.8299    0.0416   -2.0859 S   0  0  0  0  0  0  0  0  0  0  0  0
   -3.3213    1.1696    0.5884 O   0  0  0  0  0  0  0  0  0  0  0  0
   -3.1208    1.5717    1.9692 C   0  0  0  0  0  0  0  0  0  0  0  0
   -4.1540    2.6296    2.2939 C   0  0  0  0  0  0  0  0  0  0  0  0
   -1.9311   -0.8768    0.6360 O   0  0  0  0  0  0  0  0  0  0  0  0
   -1.6159   -2.1828    0.1240 C   0  0  0  0  0  0  0  0  0  0  0  0
   -2.6203   -3.1804    0.6663 C   0  0  0  0  0  0  0  0  0  0  0  0
    3.7368   -0.4805   -2.5984 H   0  0  0  0  0  0  0  0  0  0  0  0
    5.0970   -1.5695   -2.9045 H   0  0  0  0  0  0  0  0  0  0  0  0
    3.4557   -2.2213   -2.7389 H   0  0  0  0  0  0  0  0  0  0  0  0
    4.9915   -0.7931   -0.5121 H   0  0  0  0  0  0  0  0  0  0  0  0
    4.8448   -2.5718   -0.6504 H   0  0  0  0  0  0  0  0  0  0  0  0
    1.5763   -1.6051    3.0120 H   0  0  0  0  0  0  0  0  0  0  0  0
    2.6227   -0.2127    2.6187 H   0  0  0  0  0  0  0  0  0  0  0  0
    0.8127    0.3977    4.2606 H   0  0  0  0  0  0  0  0  0  0  0  0
    0.6893    1.3173    2.7508 H   0  0  0  0  0  0  0  0  0  0  0  0
   -0.4010   -0.0442    3.0449 H   0  0  0  0  0  0  0  0  0  0  0  0
   -0.4076    1.3242   -2.4328 H   0  0  0  0  0  0  0  0  0  0  0  0
    1.1448    1.8802   -1.7035 H   0  0  0  0  0  0  0  0  0  0  0  0
   -3.2398    0.6858    2.5958 H   0  0  0  0  0  0  0  0  0  0  0  0
   -2.1045    1.9613    2.0745 H   0  0  0  0  0  0  0  0  0  0  0  0
   -5.1535    2.2328    2.1413 H   0  0  0  0  0  0  0  0  0  0  0  0
   -4.0396    2.9325    3.3296 H   0  0  0  0  0  0  0  0  0  0  0  0
   -4.0192    3.4935    1.6493 H   0  0  0  0  0  0  0  0  0  0  0  0
   -1.6445   -2.1562   -0.9705 H   0  0  0  0  0  0  0  0  0  0  0  0
   -0.5999   -2.4127    0.4534 H   0  0  0  0  0  0  0  0  0  0  0  0
   -2.3594   -4.1729    0.3136 H   0  0  0  0  0  0  0  0  0  0  0  0
   -2.6125   -3.1702    1.7524 H   0  0  0  0  0  0  0  0  0  0  0  0
   -3.6186   -2.9284    0.3164 H   0  0  0  0  0  0  0  0  0  0  0  0
  1  2  1  0  0  0  0
  2  3  1  0  0  0  0
  3  4  2  0  0  0  0
  4  5  2  0  0  0  0
  4  6  2  0  0  0  0
  6  7  1  0  0  0  0
  7  8  1  0  0  0  0
  4  9  1  0  0  0  0
  9 10  1  0  0  0  0
 10 11  1  0  0  0  0
 11 12  1  0  0  0  0
 12 13  2  0  0  0  0
 12 14  2  0  0  0  0
 14 15  1  0  0  0  0
 15 16  1  0  0  0  0
 12 17  2  0  0  0  0
 17 18  1  0  0  0  0
 18 19  1  0  0  0  0
  1 20  1  0  0  0  0
  1 21  1  0  0  0  0
  1 22  1  0  0  0  0
  2 23  1  0  0  0  0
  2 24  1  0  0  0  0
  7 25  1  0  0  0  0
  7 26  1  0  0  0  0
  8 27  1  0  0  0  0
  8 28  1  0  0  0  0
  8 29  1  0  0  0  0
 10 30  1  0  0  0  0
 10 31  1  0  0  0  0
 15 32  1  0  0  0  0
 15 33  1  0  0  0  0
 16 34  1  0  0  0  0
 16 35  1  0  0  0  0
 16 36  1  0  0  0  0
 18 37  1  0  0  0  0
 18 38  1  0  0  0  0
 19 39  1  0  0  0  0
 19 40  1  0  0  0  0
 19 41  1  0  0  0  0
M  END
