 xtb: 6.7.1 (edcfbbe)
          04092507313D

 38 37  0     0  0            999 V2000
    3.7220   -1.0652    1.8279 C   0  0  0  0  0  0  0  0  0  0  0  0
    2.8123   -1.9596    1.0026 C   0  0  0  0  0  0  0  0  0  0  0  0
    2.5454   -1.3780   -0.2899 O   0  0  0  0  0  0  0  0  0  0  0  0
    1.5690   -0.5231   -0.4240 C   0  0  0  0  0  0  0  0  0  0  0  0
    0.8474   -0.1293    0.4815 O   0  0  0  0  0  0  0  0  0  0  0  0
    1.3968   -0.0391   -1.8421 C   0  0  0  0  0  0  0  0  0  0  0  0
    0.2441    0.9526   -1.8785 C   0  0  0  0  0  0  0  0  0  0  0  0
    0.1948    1.4532   -2.8492 H   0  0  0  0  0  0  0  0  0  0  0  0
    0.3700    2.0122   -0.7914 C   0  0  0  0  0  0  0  0  0  0  0  0
   -0.5569    2.4323   -0.1397 O   0  0  0  0  0  0  0  0  0  0  0  0
    1.6101    2.4557   -0.7224 O   0  0  0  0  0  0  0  0  0  0  0  0
    1.9279    3.4785    0.2445 C   0  0  0  0  0  0  0  0  0  0  0  0
    2.6100    2.8649    1.4558 C   0  0  0  0  0  0  0  0  0  0  0  0
   -1.3978    0.1617   -1.7590 S   0  0  0  0  0  0  0  0  0  0  0  0
   -1.6931   -0.7602    0.1297 P   0  0  0  0  0  0  0  0  0  0  0  0
   -0.8600   -2.4865    0.5895 S   0  0  0  0  0  0  0  0  0  0  0  0
   -1.8355    0.3274    1.2688 O   0  0  0  0  0  0  0  0  0  0  0  0
   -1.0853    0.3830    2.4779 C   0  0  0  0  0  0  0  0  0  0  0  0
   -3.2736   -0.9703   -0.0551 O   0  0  0  0  0  0  0  0  0  0  0  0
   -3.8043   -1.9500   -0.9506 C   0  0  0  0  0  0  0  0  0  0  0  0
    4.6357   -0.8546    1.2792 H   0  0  0  0  0  0  0  0  0  0  0  0
    3.2207   -0.1290    2.0612 H   0  0  0  0  0  0  0  0  0  0  0  0
    3.9694   -1.5701    2.7556 H   0  0  0  0  0  0  0  0  0  0  0  0
    1.8599   -2.1381    1.5093 H   0  0  0  0  0  0  0  0  0  0  0  0
    3.2907   -2.9108    0.7705 H   0  0  0  0  0  0  0  0  0  0  0  0
    1.1995   -0.8910   -2.4944 H   0  0  0  0  0  0  0  0  0  0  0  0
    2.3232    0.4384   -2.1654 H   0  0  0  0  0  0  0  0  0  0  0  0
    2.5934    4.1645   -0.2808 H   0  0  0  0  0  0  0  0  0  0  0  0
    1.0027    3.9877    0.5281 H   0  0  0  0  0  0  0  0  0  0  0  0
    1.9587    2.1192    1.9093 H   0  0  0  0  0  0  0  0  0  0  0  0
    3.5411    2.3881    1.1619 H   0  0  0  0  0  0  0  0  0  0  0  0
    2.8183    3.6407    2.1850 H   0  0  0  0  0  0  0  0  0  0  0  0
   -0.5755   -0.5651    2.6581 H   0  0  0  0  0  0  0  0  0  0  0  0
   -1.7991    0.5896    3.2726 H   0  0  0  0  0  0  0  0  0  0  0  0
   -0.3567    1.1884    2.3968 H   0  0  0  0  0  0  0  0  0  0  0  0
   -3.7267   -1.6000   -1.9798 H   0  0  0  0  0  0  0  0  0  0  0  0
   -4.8462   -2.0728   -0.6654 H   0  0  0  0  0  0  0  0  0  0  0  0
   -3.2659   -2.8933   -0.8352 H   0  0  0  0  0  0  0  0  0  0  0  0
  1  2  1  0  0  0  0
  2  3  1  0  0  0  0
  3  4  4  0  0  0  0
  4  5  2  0  0  0  0
  4  6  1  0  0  0  0
  6  7  1  0  0  0  0
  7  8  1  0  0  0  0
  7  9  1  0  0  0  0
  9 10  2  0  0  0  0
  9 11  1  0  0  0  0
 11 12  1  0  0  0  0
 12 13  1  0  0  0  0
  7 14  1  0  0  0  0
 14 15  1  0  0  0  0
 15 16  2  0  0  0  0
 15 17  2  0  0  0  0
 17 18  1  0  0  0  0
 15 19  1  0  0  0  0
 19 20  1  0  0  0  0
  1 21  1  0  0  0  0
  1 22  1  0  0  0  0
  1 23  1  0  0  0  0
  2 24  1  0  0  0  0
  2 25  1  0  0  0  0
  6 26  1  0  0  0  0
  6 27  1  0  0  0  0
 12 28  1  0  0  0  0
 12 29  1  0  0  0  0
 13 30  1  0  0  0  0
 13 31  1  0  0  0  0
 13 32  1  0  0  0  0
 18 33  1  0  0  0  0
 18 34  1  0  0  0  0
 18 35  1  0  0  0  0
 20 36  1  0  0  0  0
 20 37  1  0  0  0  0
 20 38  1  0  0  0  0
M  END
