 xtb: 6.7.1 (edcfbbe)
          04092505203D

 41 40  0     0  0            999 V2000
    5.3194   -2.0133   -1.6199 C   0  0  0  0  0  0  0  0  0  0  0  0
    4.2158   -0.9751   -1.6396 C   0  0  0  0  0  0  0  0  0  0  0  0
    3.2877   -1.2945   -0.5830 O   0  0  0  0  0  0  0  0  0  0  0  0
    2.2539   -0.2222   -0.0358 P   0  0  0  0  0  0  0  0  0  0  0  0
    3.0181    1.5300    0.4163 S   0  0  0  0  0  0  0  0  0  0  0  0
    1.5613   -1.0165    1.1461 O   0  0  0  0  0  0  0  0  0  0  0  0
    2.0082   -0.8892    2.5127 C   0  0  0  0  0  0  0  0  0  0  0  0
    3.3715   -1.5161    2.7106 C   0  0  0  0  0  0  0  0  0  0  0  0
    0.7283   -0.2298   -1.4945 S   0  0  0  0  0  0  0  0  0  0  0  0
   -0.0716    1.3099   -0.9609 C   0  0  0  0  0  0  0  0  0  0  0  0
   -0.8402    1.1803    0.6733 S   0  0  0  0  0  0  0  0  0  0  0  0
   -2.6915    0.2795    0.0934 P   0  0  0  0  0  0  0  0  0  0  0  0
   -3.1540    0.4502   -1.8092 S   0  0  0  0  0  0  0  0  0  0  0  0
   -3.7622    0.8746    1.0914 O   0  0  0  0  0  0  0  0  0  0  0  0
   -4.5348    2.0431    0.7651 C   0  0  0  0  0  0  0  0  0  0  0  0
   -3.6914    3.3027    0.7700 C   0  0  0  0  0  0  0  0  0  0  0  0
   -2.6844   -1.1630    0.7467 O   0  0  0  0  0  0  0  0  0  0  0  0
   -1.7100   -2.1919    0.5086 C   0  0  0  0  0  0  0  0  0  0  0  0
   -1.8483   -2.8117   -0.8683 C   0  0  0  0  0  0  0  0  0  0  0  0
    4.8962   -3.0049   -1.7503 H   0  0  0  0  0  0  0  0  0  0  0  0
    6.0140   -1.8091   -2.4281 H   0  0  0  0  0  0  0  0  0  0  0  0
    5.8513   -1.9786   -0.6735 H   0  0  0  0  0  0  0  0  0  0  0  0
    3.6715   -0.9888   -2.5877 H   0  0  0  0  0  0  0  0  0  0  0  0
    4.6083    0.0328   -1.4668 H   0  0  0  0  0  0  0  0  0  0  0  0
    2.0247    0.1740    2.7734 H   0  0  0  0  0  0  0  0  0  0  0  0
    1.2362   -1.3988    3.0906 H   0  0  0  0  0  0  0  0  0  0  0  0
    3.6347   -1.4841    3.7633 H   0  0  0  0  0  0  0  0  0  0  0  0
    3.3639   -2.5473    2.3678 H   0  0  0  0  0  0  0  0  0  0  0  0
    4.1167   -0.9609    2.1420 H   0  0  0  0  0  0  0  0  0  0  0  0
   -0.8345    1.5352   -1.7076 H   0  0  0  0  0  0  0  0  0  0  0  0
    0.6769    2.0986   -0.8950 H   0  0  0  0  0  0  0  0  0  0  0  0
   -4.9983    1.8938   -0.2156 H   0  0  0  0  0  0  0  0  0  0  0  0
   -5.3045    2.0714    1.5375 H   0  0  0  0  0  0  0  0  0  0  0  0
   -3.1452    3.3876    1.7061 H   0  0  0  0  0  0  0  0  0  0  0  0
   -2.9779    3.2772   -0.0525 H   0  0  0  0  0  0  0  0  0  0  0  0
   -4.3360    4.1673    0.6486 H   0  0  0  0  0  0  0  0  0  0  0  0
   -0.7054   -1.7809    0.6520 H   0  0  0  0  0  0  0  0  0  0  0  0
   -1.9153   -2.9236    1.2925 H   0  0  0  0  0  0  0  0  0  0  0  0
   -1.6107   -2.0840   -1.6423 H   0  0  0  0  0  0  0  0  0  0  0  0
   -1.1612   -3.6475   -0.9533 H   0  0  0  0  0  0  0  0  0  0  0  0
   -2.8657   -3.1624   -1.0203 H   0  0  0  0  0  0  0  0  0  0  0  0
  1  2  1  0  0  0  0
  2  3  1  0  0  0  0
  3  4  2  0  0  0  0
  4  5  2  0  0  0  0
  4  6  2  0  0  0  0
  6  7  1  0  0  0  0
  7  8  1  0  0  0  0
  4  9  1  0  0  0  0
  9 10  1  0  0  0  0
 10 11  1  0  0  0  0
 11 12  1  0  0  0  0
 12 13  2  0  0  0  0
 12 14  2  0  0  0  0
 14 15  1  0  0  0  0
 15 16  1  0  0  0  0
 12 17  2  0  0  0  0
 17 18  1  0  0  0  0
 18 19  1  0  0  0  0
  1 20  1  0  0  0  0
  1 21  1  0  0  0  0
  1 22  1  0  0  0  0
  2 23  1  0  0  0  0
  2 24  1  0  0  0  0
  7 25  1  0  0  0  0
  7 26  1  0  0  0  0
  8 27  1  0  0  0  0
  8 28  1  0  0  0  0
  8 29  1  0  0  0  0
 10 30  1  0  0  0  0
 10 31  1  0  0  0  0
 15 32  1  0  0  0  0
 15 33  1  0  0  0  0
 16 34  1  0  0  0  0
 16 35  1  0  0  0  0
 16 36  1  0  0  0  0
 18 37  1  0  0  0  0
 18 38  1  0  0  0  0
 19 39  1  0  0  0  0
 19 40  1  0  0  0  0
 19 41  1  0  0  0  0
M  END
