 xtb: 6.7.1 (edcfbbe)
          04092505203D

 41 40  0     0  0            999 V2000
    1.2149   -1.4569    3.1929 C   0  0  0  0  0  0  0  0  0  0  0  0
    2.0589   -0.2462    2.8491 C   0  0  0  0  0  0  0  0  0  0  0  0
    1.6609    0.3010    1.5671 O   0  0  0  0  0  0  0  0  0  0  0  0
    2.4404   -0.0398    0.2316 P   0  0  0  0  0  0  0  0  0  0  0  0
    3.1363   -1.8688    0.0558 S   0  0  0  0  0  0  0  0  0  0  0  0
    3.5634    1.0867    0.2358 O   0  0  0  0  0  0  0  0  0  0  0  0
    4.7261    1.0184   -0.6075 C   0  0  0  0  0  0  0  0  0  0  0  0
    4.3778    1.2019   -2.0704 C   0  0  0  0  0  0  0  0  0  0  0  0
    1.0175    0.5921   -1.1915 S   0  0  0  0  0  0  0  0  0  0  0  0
    0.0748   -0.9596   -1.2086 C   0  0  0  0  0  0  0  0  0  0  0  0
   -1.0591   -1.1052    0.1832 S   0  0  0  0  0  0  0  0  0  0  0  0
   -2.4650    0.3464   -0.5149 P   0  0  0  0  0  0  0  0  0  0  0  0
   -2.6726    0.3761   -2.4640 S   0  0  0  0  0  0  0  0  0  0  0  0
   -2.0234    1.7818   -0.0336 O   0  0  0  0  0  0  0  0  0  0  0  0
   -2.1881    2.3414    1.2917 C   0  0  0  0  0  0  0  0  0  0  0  0
   -1.4539    1.5550    2.3570 C   0  0  0  0  0  0  0  0  0  0  0  0
   -3.7486    0.0857    0.3824 O   0  0  0  0  0  0  0  0  0  0  0  0
   -4.3576   -1.2000    0.6073 C   0  0  0  0  0  0  0  0  0  0  0  0
   -4.7449   -1.8994   -0.6783 C   0  0  0  0  0  0  0  0  0  0  0  0
    0.1602   -1.2003    3.1643 H   0  0  0  0  0  0  0  0  0  0  0  0
    1.3960   -2.2562    2.4775 H   0  0  0  0  0  0  0  0  0  0  0  0
    1.4778   -1.8042    4.1867 H   0  0  0  0  0  0  0  0  0  0  0  0
    3.1205   -0.5048    2.8153 H   0  0  0  0  0  0  0  0  0  0  0  0
    1.9021    0.5681    3.5580 H   0  0  0  0  0  0  0  0  0  0  0  0
    5.3647    1.8230   -0.2403 H   0  0  0  0  0  0  0  0  0  0  0  0
    5.2136    0.0513   -0.4469 H   0  0  0  0  0  0  0  0  0  0  0  0
    5.2908    1.2575   -2.6545 H   0  0  0  0  0  0  0  0  0  0  0  0
    3.7850    0.3577   -2.4214 H   0  0  0  0  0  0  0  0  0  0  0  0
    3.8021    2.1135   -2.2110 H   0  0  0  0  0  0  0  0  0  0  0  0
    0.7646   -1.8028   -1.1564 H   0  0  0  0  0  0  0  0  0  0  0  0
   -0.4977   -0.9661   -2.1374 H   0  0  0  0  0  0  0  0  0  0  0  0
   -1.7815    3.3485    1.1854 H   0  0  0  0  0  0  0  0  0  0  0  0
   -3.2571    2.3920    1.5071 H   0  0  0  0  0  0  0  0  0  0  0  0
   -1.8975    0.5678    2.4723 H   0  0  0  0  0  0  0  0  0  0  0  0
   -0.4065    1.4421    2.0874 H   0  0  0  0  0  0  0  0  0  0  0  0
   -1.5247    2.0871    3.3007 H   0  0  0  0  0  0  0  0  0  0  0  0
   -3.6589   -1.8127    1.1836 H   0  0  0  0  0  0  0  0  0  0  0  0
   -5.2344   -0.9641    1.2130 H   0  0  0  0  0  0  0  0  0  0  0  0
   -5.3810   -1.2578   -1.2835 H   0  0  0  0  0  0  0  0  0  0  0  0
   -3.8553   -2.1427   -1.2572 H   0  0  0  0  0  0  0  0  0  0  0  0
   -5.2764   -2.8160   -0.4439 H   0  0  0  0  0  0  0  0  0  0  0  0
  1  2  1  0  0  0  0
  2  3  1  0  0  0  0
  3  4  2  0  0  0  0
  4  5  2  0  0  0  0
  4  6  2  0  0  0  0
  6  7  1  0  0  0  0
  7  8  1  0  0  0  0
  4  9  1  0  0  0  0
  9 10  1  0  0  0  0
 10 11  1  0  0  0  0
 11 12  1  0  0  0  0
 12 13  2  0  0  0  0
 12 14  2  0  0  0  0
 14 15  1  0  0  0  0
 15 16  1  0  0  0  0
 12 17  2  0  0  0  0
 17 18  1  0  0  0  0
 18 19  1  0  0  0  0
  1 20  1  0  0  0  0
  1 21  1  0  0  0  0
  1 22  1  0  0  0  0
  2 23  1  0  0  0  0
  2 24  1  0  0  0  0
  7 25  1  0  0  0  0
  7 26  1  0  0  0  0
  8 27  1  0  0  0  0
  8 28  1  0  0  0  0
  8 29  1  0  0  0  0
 10 30  1  0  0  0  0
 10 31  1  0  0  0  0
 15 32  1  0  0  0  0
 15 33  1  0  0  0  0
 16 34  1  0  0  0  0
 16 35  1  0  0  0  0
 16 36  1  0  0  0  0
 18 37  1  0  0  0  0
 18 38  1  0  0  0  0
 19 39  1  0  0  0  0
 19 40  1  0  0  0  0
 19 41  1  0  0  0  0
M  END
