 xtb: 6.7.1 (edcfbbe)
          04092505203D

 41 40  0     0  0            999 V2000
    3.1180   -2.4473   -2.4234 C   0  0  0  0  0  0  0  0  0  0  0  0
    3.3427   -2.3174   -0.9305 C   0  0  0  0  0  0  0  0  0  0  0  0
    3.5696   -0.9344   -0.5584 O   0  0  0  0  0  0  0  0  0  0  0  0
    2.4407    0.0142    0.0181 P   0  0  0  0  0  0  0  0  0  0  0  0
    3.1634    1.7390    0.5798 S   0  0  0  0  0  0  0  0  0  0  0  0
    1.6819   -0.8238    1.1574 O   0  0  0  0  0  0  0  0  0  0  0  0
    1.9866   -0.6517    2.5534 C   0  0  0  0  0  0  0  0  0  0  0  0
    3.3138   -1.2900    2.9088 C   0  0  0  0  0  0  0  0  0  0  0  0
    0.9284    0.0489   -1.4560 S   0  0  0  0  0  0  0  0  0  0  0  0
    0.0297    1.4746   -0.7908 C   0  0  0  0  0  0  0  0  0  0  0  0
   -0.8088    1.1351    0.7776 S   0  0  0  0  0  0  0  0  0  0  0  0
   -2.5691    0.1948    0.0080 P   0  0  0  0  0  0  0  0  0  0  0  0
   -2.9558    0.5483   -1.8869 S   0  0  0  0  0  0  0  0  0  0  0  0
   -3.7218    0.6081    1.0072 O   0  0  0  0  0  0  0  0  0  0  0  0
   -4.5545    1.7559    0.7717 C   0  0  0  0  0  0  0  0  0  0  0  0
   -3.8043    3.0558    0.9855 C   0  0  0  0  0  0  0  0  0  0  0  0
   -2.4948   -1.3083    0.4987 O   0  0  0  0  0  0  0  0  0  0  0  0
   -1.4321   -2.2340    0.2146 C   0  0  0  0  0  0  0  0  0  0  0  0
   -1.4565   -2.7150   -1.2233 C   0  0  0  0  0  0  0  0  0  0  0  0
    3.0472   -3.4995   -2.6808 H   0  0  0  0  0  0  0  0  0  0  0  0
    2.1992   -1.9453   -2.7192 H   0  0  0  0  0  0  0  0  0  0  0  0
    3.9482   -2.0016   -2.9640 H   0  0  0  0  0  0  0  0  0  0  0  0
    4.2563   -2.8298   -0.6239 H   0  0  0  0  0  0  0  0  0  0  0  0
    2.4913   -2.7034   -0.3648 H   0  0  0  0  0  0  0  0  0  0  0  0
    1.9983    0.4196    2.7769 H   0  0  0  0  0  0  0  0  0  0  0  0
    1.1517   -1.1255    3.0715 H   0  0  0  0  0  0  0  0  0  0  0  0
    3.4979   -1.1697    3.9717 H   0  0  0  0  0  0  0  0  0  0  0  0
    3.3059   -2.3485    2.6620 H   0  0  0  0  0  0  0  0  0  0  0  0
    4.1148   -0.8015    2.3541 H   0  0  0  0  0  0  0  0  0  0  0  0
   -0.7093    1.7479   -1.5456 H   0  0  0  0  0  0  0  0  0  0  0  0
    0.7352    2.2836   -0.6034 H   0  0  0  0  0  0  0  0  0  0  0  0
   -4.9473    1.7010   -0.2491 H   0  0  0  0  0  0  0  0  0  0  0  0
   -5.3693    1.6400    1.4876 H   0  0  0  0  0  0  0  0  0  0  0  0
   -3.0428    3.1789    0.2166 H   0  0  0  0  0  0  0  0  0  0  0  0
   -4.5001    3.8866    0.9259 H   0  0  0  0  0  0  0  0  0  0  0  0
   -3.3225    3.0573    1.9601 H   0  0  0  0  0  0  0  0  0  0  0  0
   -0.4729   -1.7647    0.4553 H   0  0  0  0  0  0  0  0  0  0  0  0
   -1.6178   -3.0558    0.9091 H   0  0  0  0  0  0  0  0  0  0  0  0
   -0.7107   -3.4926   -1.3541 H   0  0  0  0  0  0  0  0  0  0  0  0
   -2.4382   -3.1134   -1.4661 H   0  0  0  0  0  0  0  0  0  0  0  0
   -1.2345   -1.8962   -1.9052 H   0  0  0  0  0  0  0  0  0  0  0  0
  1  2  1  0  0  0  0
  2  3  1  0  0  0  0
  3  4  2  0  0  0  0
  4  5  2  0  0  0  0
  4  6  1  0  0  0  0
  6  7  1  0  0  0  0
  7  8  1  0  0  0  0
  4  9  1  0  0  0  0
  9 10  1  0  0  0  0
 10 11  1  0  0  0  0
 11 12  1  0  0  0  0
 12 13  2  0  0  0  0
 12 14  2  0  0  0  0
 14 15  1  0  0  0  0
 15 16  1  0  0  0  0
 12 17  2  0  0  0  0
 17 18  1  0  0  0  0
 18 19  1  0  0  0  0
  1 20  1  0  0  0  0
  1 21  1  0  0  0  0
  1 22  1  0  0  0  0
  2 23  1  0  0  0  0
  2 24  1  0  0  0  0
  7 25  1  0  0  0  0
  7 26  1  0  0  0  0
  8 27  1  0  0  0  0
  8 28  1  0  0  0  0
  8 29  1  0  0  0  0
 10 30  1  0  0  0  0
 10 31  1  0  0  0  0
 15 32  1  0  0  0  0
 15 33  1  0  0  0  0
 16 34  1  0  0  0  0
 16 35  1  0  0  0  0
 16 36  1  0  0  0  0
 18 37  1  0  0  0  0
 18 38  1  0  0  0  0
 19 39  1  0  0  0  0
 19 40  1  0  0  0  0
 19 41  1  0  0  0  0
M  END
