 xtb: 6.7.1 (edcfbbe)
          04092507313D

 38 37  0     0  0            999 V2000
    5.0257   -2.9443    0.4187 C   0  0  0  0  0  0  0  0  0  0  0  0
    4.5063   -1.8025   -0.4329 C   0  0  0  0  0  0  0  0  0  0  0  0
    3.0674   -1.8677   -0.4447 O   0  0  0  0  0  0  0  0  0  0  0  0
    2.4248   -1.1889   -1.3675 C   0  0  0  0  0  0  0  0  0  0  0  0
    2.9576   -0.5502   -2.2517 O   0  0  0  0  0  0  0  0  0  0  0  0
    0.9197   -1.3366   -1.2290 C   0  0  0  0  0  0  0  0  0  0  0  0
    0.2919    0.0392   -1.4145 C   0  0  0  0  0  0  0  0  0  0  0  0
    0.5998    0.4351   -2.3909 H   0  0  0  0  0  0  0  0  0  0  0  0
    0.8214    1.0217   -0.3859 C   0  0  0  0  0  0  0  0  0  0  0  0
    1.9229    0.9093    0.1008 O   0  0  0  0  0  0  0  0  0  0  0  0
    0.0032    2.0360   -0.1851 O   0  0  0  0  0  0  0  0  0  0  0  0
    0.4727    3.1380    0.6224 C   0  0  0  0  0  0  0  0  0  0  0  0
    0.3323    2.8689    2.1102 C   0  0  0  0  0  0  0  0  0  0  0  0
   -1.5205    0.0037   -1.4911 S   0  0  0  0  0  0  0  0  0  0  0  0
   -2.0191    0.0571    0.5769 P   0  0  0  0  0  0  0  0  0  0  0  0
   -0.6836   -0.6008    1.8495 S   0  0  0  0  0  0  0  0  0  0  0  0
   -2.5409    1.5056    0.9265 O   0  0  0  0  0  0  0  0  0  0  0  0
   -3.5710    2.1553    0.1544 C   0  0  0  0  0  0  0  0  0  0  0  0
   -3.3993   -0.7519    0.5883 O   0  0  0  0  0  0  0  0  0  0  0  0
   -3.4352   -2.1665    0.3683 C   0  0  0  0  0  0  0  0  0  0  0  0
    4.7271   -3.8967   -0.0092 H   0  0  0  0  0  0  0  0  0  0  0  0
    6.1083   -2.8938    0.4636 H   0  0  0  0  0  0  0  0  0  0  0  0
    4.6193   -2.8683    1.4228 H   0  0  0  0  0  0  0  0  0  0  0  0
    4.8637   -1.8612   -1.4660 H   0  0  0  0  0  0  0  0  0  0  0  0
    4.7883   -0.8282   -0.0216 H   0  0  0  0  0  0  0  0  0  0  0  0
    0.6967   -1.7518   -0.2455 H   0  0  0  0  0  0  0  0  0  0  0  0
    0.5591   -2.0096   -2.0081 H   0  0  0  0  0  0  0  0  0  0  0  0
    1.5201    3.3180    0.3635 H   0  0  0  0  0  0  0  0  0  0  0  0
   -0.1509    3.9748    0.3076 H   0  0  0  0  0  0  0  0  0  0  0  0
    0.6492    3.7482    2.6608 H   0  0  0  0  0  0  0  0  0  0  0  0
   -0.7007    2.6386    2.3592 H   0  0  0  0  0  0  0  0  0  0  0  0
    0.9544    2.0248    2.4013 H   0  0  0  0  0  0  0  0  0  0  0  0
   -3.2683    2.2151   -0.8909 H   0  0  0  0  0  0  0  0  0  0  0  0
   -3.6668    3.1480    0.5861 H   0  0  0  0  0  0  0  0  0  0  0  0
   -4.5039    1.6025    0.2432 H   0  0  0  0  0  0  0  0  0  0  0  0
   -4.4382   -2.4803    0.6458 H   0  0  0  0  0  0  0  0  0  0  0  0
   -2.6941   -2.6632    0.9963 H   0  0  0  0  0  0  0  0  0  0  0  0
   -3.2416   -2.3824   -0.6821 H   0  0  0  0  0  0  0  0  0  0  0  0
  1  2  1  0  0  0  0
  2  3  1  0  0  0  0
  3  4  1  0  0  0  0
  4  5  2  0  0  0  0
  4  6  1  0  0  0  0
  6  7  1  0  0  0  0
  7  8  1  0  0  0  0
  7  9  1  0  0  0  0
  9 10  2  0  0  0  0
  9 11  1  0  0  0  0
 11 12  1  0  0  0  0
 12 13  1  0  0  0  0
  7 14  1  0  0  0  0
 14 15  1  0  0  0  0
 15 16  2  0  0  0  0
 15 17  2  0  0  0  0
 17 18  1  0  0  0  0
 15 19  1  0  0  0  0
 19 20  1  0  0  0  0
  1 21  1  0  0  0  0
  1 22  1  0  0  0  0
  1 23  1  0  0  0  0
  2 24  1  0  0  0  0
  2 25  1  0  0  0  0
  6 26  1  0  0  0  0
  6 27  1  0  0  0  0
 12 28  1  0  0  0  0
 12 29  1  0  0  0  0
 13 30  1  0  0  0  0
 13 31  1  0  0  0  0
 13 32  1  0  0  0  0
 18 33  1  0  0  0  0
 18 34  1  0  0  0  0
 18 35  1  0  0  0  0
 20 36  1  0  0  0  0
 20 37  1  0  0  0  0
 20 38  1  0  0  0  0
M  END
