 xtb: 6.7.1 (edcfbbe)
          04092505203D

 41 40  0     0  0            999 V2000
    3.2954    2.4660    0.4048 C   0  0  0  0  0  0  0  0  0  0  0  0
    2.1054    2.0366    1.2347 C   0  0  0  0  0  0  0  0  0  0  0  0
    2.2137    0.6765    1.7167 O   0  0  0  0  0  0  0  0  0  0  0  0
    2.4273   -0.6181    0.8419 P   0  0  0  0  0  0  0  0  0  0  0  0
    1.9848   -2.2319    1.8573 S   0  0  0  0  0  0  0  0  0  0  0  0
    3.9493   -0.5027    0.3997 O   0  0  0  0  0  0  0  0  0  0  0  0
    4.7119   -1.6365   -0.0470 C   0  0  0  0  0  0  0  0  0  0  0  0
    4.2105   -2.1840   -1.3680 C   0  0  0  0  0  0  0  0  0  0  0  0
    1.3149   -0.3098   -0.9526 S   0  0  0  0  0  0  0  0  0  0  0  0
   -0.2273   -1.0435   -0.3658 C   0  0  0  0  0  0  0  0  0  0  0  0
   -1.1397    0.0402    0.7719 S   0  0  0  0  0  0  0  0  0  0  0  0
   -2.7418    0.6460   -0.5156 P   0  0  0  0  0  0  0  0  0  0  0  0
   -2.7721   -0.1740   -2.3020 S   0  0  0  0  0  0  0  0  0  0  0  0
   -2.7749    2.2236   -0.4204 O   0  0  0  0  0  0  0  0  0  0  0  0
   -1.6330    3.0910   -0.5372 C   0  0  0  0  0  0  0  0  0  0  0  0
   -0.8310    2.8439   -1.7995 C   0  0  0  0  0  0  0  0  0  0  0  0
   -4.0707    0.4250    0.3177 O   0  0  0  0  0  0  0  0  0  0  0  0
   -4.8352   -0.7873    0.2236 C   0  0  0  0  0  0  0  0  0  0  0  0
   -4.1249   -1.9585    0.8739 C   0  0  0  0  0  0  0  0  0  0  0  0
    4.2175    2.2998    0.9554 H   0  0  0  0  0  0  0  0  0  0  0  0
    3.3320    1.8979   -0.5226 H   0  0  0  0  0  0  0  0  0  0  0  0
    3.2015    3.5220    0.1710 H   0  0  0  0  0  0  0  0  0  0  0  0
    1.1810    2.1181    0.6567 H   0  0  0  0  0  0  0  0  0  0  0  0
    2.0184    2.6186    2.1533 H   0  0  0  0  0  0  0  0  0  0  0  0
    5.7279   -1.2486   -0.1318 H   0  0  0  0  0  0  0  0  0  0  0  0
    4.6717   -2.4082    0.7283 H   0  0  0  0  0  0  0  0  0  0  0  0
    4.8963   -2.9467   -1.7227 H   0  0  0  0  0  0  0  0  0  0  0  0
    3.2264   -2.6316   -1.2372 H   0  0  0  0  0  0  0  0  0  0  0  0
    4.1405   -1.3899   -2.1070 H   0  0  0  0  0  0  0  0  0  0  0  0
    0.0073   -1.9616    0.1739 H   0  0  0  0  0  0  0  0  0  0  0  0
   -0.8457   -1.2355   -1.2466 H   0  0  0  0  0  0  0  0  0  0  0  0
   -2.0709    4.0909   -0.5346 H   0  0  0  0  0  0  0  0  0  0  0  0
   -1.0145    2.9618    0.3561 H   0  0  0  0  0  0  0  0  0  0  0  0
   -0.0463    3.5893   -1.8812 H   0  0  0  0  0  0  0  0  0  0  0  0
   -0.3763    1.8531   -1.7810 H   0  0  0  0  0  0  0  0  0  0  0  0
   -1.4762    2.9057   -2.6727 H   0  0  0  0  0  0  0  0  0  0  0  0
   -5.7688   -0.5500    0.7354 H   0  0  0  0  0  0  0  0  0  0  0  0
   -5.0342   -0.9965   -0.8328 H   0  0  0  0  0  0  0  0  0  0  0  0
   -4.7900   -2.8158    0.8975 H   0  0  0  0  0  0  0  0  0  0  0  0
   -3.2353   -2.2208    0.3021 H   0  0  0  0  0  0  0  0  0  0  0  0
   -3.8287   -1.7047    1.8889 H   0  0  0  0  0  0  0  0  0  0  0  0
  1  2  1  0  0  0  0
  2  3  1  0  0  0  0
  3  4  2  0  0  0  0
  4  5  2  0  0  0  0
  4  6  2  0  0  0  0
  6  7  1  0  0  0  0
  7  8  1  0  0  0  0
  4  9  1  0  0  0  0
  9 10  1  0  0  0  0
 10 11  1  0  0  0  0
 11 12  1  0  0  0  0
 12 13  2  0  0  0  0
 12 14  2  0  0  0  0
 14 15  1  0  0  0  0
 15 16  1  0  0  0  0
 12 17  2  0  0  0  0
 17 18  1  0  0  0  0
 18 19  1  0  0  0  0
  1 20  1  0  0  0  0
  1 21  1  0  0  0  0
  1 22  1  0  0  0  0
  2 23  1  0  0  0  0
  2 24  1  0  0  0  0
  7 25  1  0  0  0  0
  7 26  1  0  0  0  0
  8 27  1  0  0  0  0
  8 28  1  0  0  0  0
  8 29  1  0  0  0  0
 10 30  1  0  0  0  0
 10 31  1  0  0  0  0
 15 32  1  0  0  0  0
 15 33  1  0  0  0  0
 16 34  1  0  0  0  0
 16 35  1  0  0  0  0
 16 36  1  0  0  0  0
 18 37  1  0  0  0  0
 18 38  1  0  0  0  0
 19 39  1  0  0  0  0
 19 40  1  0  0  0  0
 19 41  1  0  0  0  0
M  END
