 xtb: 6.7.1 (edcfbbe)
          04092505203D

 41 40  0     0  0            999 V2000
    1.6653   -1.5494    3.1197 C   0  0  0  0  0  0  0  0  0  0  0  0
    2.3847   -2.0795    1.8961 C   0  0  0  0  0  0  0  0  0  0  0  0
    1.5752   -1.8721    0.7064 O   0  0  0  0  0  0  0  0  0  0  0  0
    1.9589   -0.8444   -0.4274 P   0  0  0  0  0  0  0  0  0  0  0  0
    0.7122   -0.9189   -1.9339 S   0  0  0  0  0  0  0  0  0  0  0  0
    3.4579   -1.2721   -0.7499 O   0  0  0  0  0  0  0  0  0  0  0  0
    4.1330   -0.9076   -1.9663 C   0  0  0  0  0  0  0  0  0  0  0  0
    4.3528    0.5868   -2.0822 C   0  0  0  0  0  0  0  0  0  0  0  0
    2.1925    1.0406    0.5355 S   0  0  0  0  0  0  0  0  0  0  0  0
    0.4842    1.6003    0.4197 C   0  0  0  0  0  0  0  0  0  0  0  0
   -0.6591    0.5209    1.3573 S   0  0  0  0  0  0  0  0  0  0  0  0
   -2.3738    0.6088    0.1059 P   0  0  0  0  0  0  0  0  0  0  0  0
   -2.1202    1.4374   -1.6595 S   0  0  0  0  0  0  0  0  0  0  0  0
   -3.5040    1.2148    1.0344 O   0  0  0  0  0  0  0  0  0  0  0  0
   -3.3520    2.3932    1.8451 C   0  0  0  0  0  0  0  0  0  0  0  0
   -3.1020    3.6392    1.0188 C   0  0  0  0  0  0  0  0  0  0  0  0
   -3.0009   -0.8434    0.0855 O   0  0  0  0  0  0  0  0  0  0  0  0
   -2.6230   -1.8787   -0.8352 C   0  0  0  0  0  0  0  0  0  0  0  0
   -1.7894   -2.9313   -0.1308 C   0  0  0  0  0  0  0  0  0  0  0  0
    1.5486   -0.4699    3.0605 H   0  0  0  0  0  0  0  0  0  0  0  0
    0.6789   -1.9977    3.1985 H   0  0  0  0  0  0  0  0  0  0  0  0
    2.2446   -1.7976    4.0032 H   0  0  0  0  0  0  0  0  0  0  0  0
    2.5230   -3.1602    1.9523 H   0  0  0  0  0  0  0  0  0  0  0  0
    3.3517   -1.5919    1.7586 H   0  0  0  0  0  0  0  0  0  0  0  0
    5.0775   -1.4507   -1.9087 H   0  0  0  0  0  0  0  0  0  0  0  0
    3.5433   -1.2765   -2.8113 H   0  0  0  0  0  0  0  0  0  0  0  0
    4.8319    0.9712   -1.1853 H   0  0  0  0  0  0  0  0  0  0  0  0
    4.9821    0.7891   -2.9431 H   0  0  0  0  0  0  0  0  0  0  0  0
    3.3995    1.0954   -2.2186 H   0  0  0  0  0  0  0  0  0  0  0  0
    0.1593    1.6101   -0.6253 H   0  0  0  0  0  0  0  0  0  0  0  0
    0.4696    2.5989    0.8494 H   0  0  0  0  0  0  0  0  0  0  0  0
   -4.2995    2.4568    2.3829 H   0  0  0  0  0  0  0  0  0  0  0  0
   -2.5368    2.2243    2.5554 H   0  0  0  0  0  0  0  0  0  0  0  0
   -3.0621    4.5044    1.6727 H   0  0  0  0  0  0  0  0  0  0  0  0
   -2.1599    3.5530    0.4789 H   0  0  0  0  0  0  0  0  0  0  0  0
   -3.8976    3.7736    0.2901 H   0  0  0  0  0  0  0  0  0  0  0  0
   -3.5648   -2.2985   -1.1947 H   0  0  0  0  0  0  0  0  0  0  0  0
   -2.0798   -1.4416   -1.6809 H   0  0  0  0  0  0  0  0  0  0  0  0
   -2.3170   -3.2943    0.7465 H   0  0  0  0  0  0  0  0  0  0  0  0
   -1.6074   -3.7544   -0.8144 H   0  0  0  0  0  0  0  0  0  0  0  0
   -0.8308   -2.5175    0.1768 H   0  0  0  0  0  0  0  0  0  0  0  0
  1  2  1  0  0  0  0
  2  3  1  0  0  0  0
  3  4  2  0  0  0  0
  4  5  2  0  0  0  0
  4  6  2  0  0  0  0
  6  7  1  0  0  0  0
  7  8  1  0  0  0  0
  4  9  1  0  0  0  0
  9 10  1  0  0  0  0
 10 11  1  0  0  0  0
 11 12  1  0  0  0  0
 12 13  2  0  0  0  0
 12 14  2  0  0  0  0
 14 15  1  0  0  0  0
 15 16  1  0  0  0  0
 12 17  2  0  0  0  0
 17 18  1  0  0  0  0
 18 19  1  0  0  0  0
  1 20  1  0  0  0  0
  1 21  1  0  0  0  0
  1 22  1  0  0  0  0
  2 23  1  0  0  0  0
  2 24  1  0  0  0  0
  7 25  1  0  0  0  0
  7 26  1  0  0  0  0
  8 27  1  0  0  0  0
  8 28  1  0  0  0  0
  8 29  1  0  0  0  0
 10 30  1  0  0  0  0
 10 31  1  0  0  0  0
 15 32  1  0  0  0  0
 15 33  1  0  0  0  0
 16 34  1  0  0  0  0
 16 35  1  0  0  0  0
 16 36  1  0  0  0  0
 18 37  1  0  0  0  0
 18 38  1  0  0  0  0
 19 39  1  0  0  0  0
 19 40  1  0  0  0  0
 19 41  1  0  0  0  0
M  END
