 xtb: 6.7.1 (edcfbbe)
          04092505213D

 41 40  0     0  0            999 V2000
    5.3214    0.4620   -0.6127 C   0  0  0  0  0  0  0  0  0  0  0  0
    4.5916    0.1520    0.6792 C   0  0  0  0  0  0  0  0  0  0  0  0
    3.4309   -0.6736    0.4621 O   0  0  0  0  0  0  0  0  0  0  0  0
    2.0885   -0.1534   -0.2106 P   0  0  0  0  0  0  0  0  0  0  0  0
    2.0470    0.0802   -2.1602 S   0  0  0  0  0  0  0  0  0  0  0  0
    1.7746    1.1597    0.6380 O   0  0  0  0  0  0  0  0  0  0  0  0
    1.3460    2.4200    0.1030 C   0  0  0  0  0  0  0  0  0  0  0  0
    2.4084    3.4690    0.3630 C   0  0  0  0  0  0  0  0  0  0  0  0
    0.9332   -1.7184    0.5763 S   0  0  0  0  0  0  0  0  0  0  0  0
   -0.2638   -2.0119   -0.7753 C   0  0  0  0  0  0  0  0  0  0  0  0
   -1.9668   -1.9680   -0.1978 S   0  0  0  0  0  0  0  0  0  0  0  0
   -2.0775    0.1398    0.0900 P   0  0  0  0  0  0  0  0  0  0  0  0
   -1.4340    1.1710   -1.4498 S   0  0  0  0  0  0  0  0  0  0  0  0
   -1.2305    0.5539    1.3560 O   0  0  0  0  0  0  0  0  0  0  0  0
   -1.5952    0.3523    2.7457 C   0  0  0  0  0  0  0  0  0  0  0  0
   -1.7900   -1.1049    3.1077 C   0  0  0  0  0  0  0  0  0  0  0  0
   -3.5611    0.3785    0.5936 O   0  0  0  0  0  0  0  0  0  0  0  0
   -4.7370   -0.1935   -0.0113 C   0  0  0  0  0  0  0  0  0  0  0  0
   -4.8727    0.1647   -1.4759 C   0  0  0  0  0  0  0  0  0  0  0  0
    5.5929   -0.4596   -1.1211 H   0  0  0  0  0  0  0  0  0  0  0  0
    4.6851    1.0431   -1.2787 H   0  0  0  0  0  0  0  0  0  0  0  0
    6.2198    1.0302   -0.3925 H   0  0  0  0  0  0  0  0  0  0  0  0
    4.2790    1.0693    1.1851 H   0  0  0  0  0  0  0  0  0  0  0  0
    5.2092   -0.4470    1.3507 H   0  0  0  0  0  0  0  0  0  0  0  0
    1.1540    2.3096   -0.9699 H   0  0  0  0  0  0  0  0  0  0  0  0
    0.4061    2.6620    0.6040 H   0  0  0  0  0  0  0  0  0  0  0  0
    3.3189    3.2238   -0.1793 H   0  0  0  0  0  0  0  0  0  0  0  0
    2.0424    4.4315    0.0209 H   0  0  0  0  0  0  0  0  0  0  0  0
    2.6276    3.5244    1.4258 H   0  0  0  0  0  0  0  0  0  0  0  0
   -0.0971   -3.0127   -1.1651 H   0  0  0  0  0  0  0  0  0  0  0  0
   -0.1106   -1.2561   -1.5523 H   0  0  0  0  0  0  0  0  0  0  0  0
   -0.7509    0.7859    3.2846 H   0  0  0  0  0  0  0  0  0  0  0  0
   -2.5002    0.9306    2.9401 H   0  0  0  0  0  0  0  0  0  0  0  0
   -1.9441   -1.1789    4.1799 H   0  0  0  0  0  0  0  0  0  0  0  0
   -2.6588   -1.5146    2.5975 H   0  0  0  0  0  0  0  0  0  0  0  0
   -0.9126   -1.6865    2.8332 H   0  0  0  0  0  0  0  0  0  0  0  0
   -4.6938   -1.2783    0.1177 H   0  0  0  0  0  0  0  0  0  0  0  0
   -5.5553    0.2219    0.5794 H   0  0  0  0  0  0  0  0  0  0  0  0
   -4.0503   -0.2661   -2.0452 H   0  0  0  0  0  0  0  0  0  0  0  0
   -5.8101   -0.2260   -1.8580 H   0  0  0  0  0  0  0  0  0  0  0  0
   -4.8510    1.2440   -1.6074 H   0  0  0  0  0  0  0  0  0  0  0  0
  1  2  1  0  0  0  0
  2  3  1  0  0  0  0
  3  4  2  0  0  0  0
  4  5  2  0  0  0  0
  4  6  2  0  0  0  0
  6  7  1  0  0  0  0
  7  8  1  0  0  0  0
  4  9  1  0  0  0  0
  9 10  1  0  0  0  0
 10 11  1  0  0  0  0
 11 12  1  0  0  0  0
 12 13  2  0  0  0  0
 12 14  2  0  0  0  0
 14 15  1  0  0  0  0
 15 16  1  0  0  0  0
 12 17  2  0  0  0  0
 17 18  1  0  0  0  0
 18 19  1  0  0  0  0
  1 20  1  0  0  0  0
  1 21  1  0  0  0  0
  1 22  1  0  0  0  0
  2 23  1  0  0  0  0
  2 24  1  0  0  0  0
  7 25  1  0  0  0  0
  7 26  1  0  0  0  0
  8 27  1  0  0  0  0
  8 28  1  0  0  0  0
  8 29  1  0  0  0  0
 10 30  1  0  0  0  0
 10 31  1  0  0  0  0
 15 32  1  0  0  0  0
 15 33  1  0  0  0  0
 16 34  1  0  0  0  0
 16 35  1  0  0  0  0
 16 36  1  0  0  0  0
 18 37  1  0  0  0  0
 18 38  1  0  0  0  0
 19 39  1  0  0  0  0
 19 40  1  0  0  0  0
 19 41  1  0  0  0  0
M  END
