 xtb: 6.7.1 (edcfbbe)
          04032520373D

 11 10  0     0  0            999 V2000
   -1.7493   -0.6617   -0.0000 C   0  0  0  0  0  0  0  0  0  0  0  0
   -0.4655    0.1104   -0.0007 C   0  0  0  0  0  0  0  0  0  0  0  0
   -0.3754    1.3210    0.0004 O   0  0  0  0  0  0  0  0  0  0  0  0
    0.5937   -0.6933    0.0007 O   0  0  0  0  0  0  0  0  0  0  0  0
    1.8887   -0.0883   -0.0003 C   0  0  0  0  0  0  0  0  0  0  0  0
   -1.5401   -1.7257    0.0013 H   0  0  0  0  0  0  0  0  0  0  0  0
   -2.3274   -0.3876   -0.8789 H   0  0  0  0  0  0  0  0  0  0  0  0
   -2.3281   -0.3854    0.8776 H   0  0  0  0  0  0  0  0  0  0  0  0
    2.0635    0.4123   -0.9533 H   0  0  0  0  0  0  0  0  0  0  0  0
    2.5930   -0.9010    0.1463 H   0  0  0  0  0  0  0  0  0  0  0  0
    1.9593    0.6450    0.8039 H   0  0  0  0  0  0  0  0  0  0  0  0
  1  2  1  0  0  0  0
  2  3  2  0  0  0  0
  2  4  1  0  0  0  0
  4  5  1  0  0  0  0
  1  6  1  0  0  0  0
  1  7  1  0  0  0  0
  1  8  1  0  0  0  0
  5  9  1  0  0  0  0
  5 10  1  0  0  0  0
  5 11  1  0  0  0  0
M  END
