 xtb: 6.7.1 (edcfbbe)
          04092505203D

 41 40  0     0  0            999 V2000
    4.1631    0.5075   -2.3879 C   0  0  0  0  0  0  0  0  0  0  0  0
    2.8435   -0.2114   -2.1984 C   0  0  0  0  0  0  0  0  0  0  0  0
    2.0230    0.4677   -1.2150 O   0  0  0  0  0  0  0  0  0  0  0  0
    1.9707    0.1064    0.3163 P   0  0  0  0  0  0  0  0  0  0  0  0
    0.8285    1.3420    1.3120 S   0  0  0  0  0  0  0  0  0  0  0  0
    3.4994    0.1330    0.7543 O   0  0  0  0  0  0  0  0  0  0  0  0
    3.9091    0.2206    2.1300 C   0  0  0  0  0  0  0  0  0  0  0  0
    3.5493   -1.0240    2.9149 C   0  0  0  0  0  0  0  0  0  0  0  0
    1.5341   -1.9796    0.3702 S   0  0  0  0  0  0  0  0  0  0  0  0
   -0.0834   -1.9979   -0.4389 C   0  0  0  0  0  0  0  0  0  0  0  0
   -1.4733   -1.5514    0.6658 S   0  0  0  0  0  0  0  0  0  0  0  0
   -2.1602    0.1851   -0.2956 P   0  0  0  0  0  0  0  0  0  0  0  0
   -1.1572    0.8454   -1.8528 S   0  0  0  0  0  0  0  0  0  0  0  0
   -2.3135    1.1264    0.9607 O   0  0  0  0  0  0  0  0  0  0  0  0
   -2.6735    2.5186    0.8239 C   0  0  0  0  0  0  0  0  0  0  0  0
   -2.3790    3.2002    2.1431 C   0  0  0  0  0  0  0  0  0  0  0  0
   -3.7010   -0.0706   -0.6349 O   0  0  0  0  0  0  0  0  0  0  0  0
   -4.1455   -0.6349   -1.8789 C   0  0  0  0  0  0  0  0  0  0  0  0
   -3.7149   -2.0792   -2.0366 C   0  0  0  0  0  0  0  0  0  0  0  0
    4.7490    0.4679   -1.4737 H   0  0  0  0  0  0  0  0  0  0  0  0
    4.7145    0.0274   -3.1903 H   0  0  0  0  0  0  0  0  0  0  0  0
    3.9853    1.5479   -2.6468 H   0  0  0  0  0  0  0  0  0  0  0  0
    2.9993   -1.2453   -1.8785 H   0  0  0  0  0  0  0  0  0  0  0  0
    2.2410   -0.1862   -3.1089 H   0  0  0  0  0  0  0  0  0  0  0  0
    4.9892    0.3622    2.0712 H   0  0  0  0  0  0  0  0  0  0  0  0
    3.4410    1.1052    2.5733 H   0  0  0  0  0  0  0  0  0  0  0  0
    2.4677   -1.0993    3.0190 H   0  0  0  0  0  0  0  0  0  0  0  0
    3.9150   -1.9122    2.4057 H   0  0  0  0  0  0  0  0  0  0  0  0
    3.9928   -0.9650    3.9037 H   0  0  0  0  0  0  0  0  0  0  0  0
   -0.2354   -3.0251   -0.7591 H   0  0  0  0  0  0  0  0  0  0  0  0
   -0.0796   -1.3050   -1.2856 H   0  0  0  0  0  0  0  0  0  0  0  0
   -2.0798    2.9524    0.0113 H   0  0  0  0  0  0  0  0  0  0  0  0
   -3.7342    2.5731    0.5643 H   0  0  0  0  0  0  0  0  0  0  0  0
   -2.6286    4.2532    2.0665 H   0  0  0  0  0  0  0  0  0  0  0  0
   -2.9623    2.7415    2.9358 H   0  0  0  0  0  0  0  0  0  0  0  0
   -1.3225    3.0931    2.3787 H   0  0  0  0  0  0  0  0  0  0  0  0
   -5.2312   -0.5390   -1.8355 H   0  0  0  0  0  0  0  0  0  0  0  0
   -3.7484   -0.0230   -2.6953 H   0  0  0  0  0  0  0  0  0  0  0  0
   -4.0071   -2.6577   -1.1639 H   0  0  0  0  0  0  0  0  0  0  0  0
   -4.1819   -2.4982   -2.9220 H   0  0  0  0  0  0  0  0  0  0  0  0
   -2.6327   -2.1309   -2.1498 H   0  0  0  0  0  0  0  0  0  0  0  0
  1  2  1  0  0  0  0
  2  3  1  0  0  0  0
  3  4  2  0  0  0  0
  4  5  2  0  0  0  0
  4  6  2  0  0  0  0
  6  7  1  0  0  0  0
  7  8  1  0  0  0  0
  4  9  1  0  0  0  0
  9 10  1  0  0  0  0
 10 11  1  0  0  0  0
 11 12  1  0  0  0  0
 12 13  2  0  0  0  0
 12 14  2  0  0  0  0
 14 15  1  0  0  0  0
 15 16  1  0  0  0  0
 12 17  2  0  0  0  0
 17 18  1  0  0  0  0
 18 19  1  0  0  0  0
  1 20  1  0  0  0  0
  1 21  1  0  0  0  0
  1 22  1  0  0  0  0
  2 23  1  0  0  0  0
  2 24  1  0  0  0  0
  7 25  1  0  0  0  0
  7 26  1  0  0  0  0
  8 27  1  0  0  0  0
  8 28  1  0  0  0  0
  8 29  1  0  0  0  0
 10 30  1  0  0  0  0
 10 31  1  0  0  0  0
 15 32  1  0  0  0  0
 15 33  1  0  0  0  0
 16 34  1  0  0  0  0
 16 35  1  0  0  0  0
 16 36  1  0  0  0  0
 18 37  1  0  0  0  0
 18 38  1  0  0  0  0
 19 39  1  0  0  0  0
 19 40  1  0  0  0  0
 19 41  1  0  0  0  0
M  END
