 xtb: 6.7.1 (edcfbbe)
          04092505213D

 41 40  0     0  0            999 V2000
    5.1630   -2.4738   -1.2036 C   0  0  0  0  0  0  0  0  0  0  0  0
    4.1069   -1.4230   -1.4787 C   0  0  0  0  0  0  0  0  0  0  0  0
    3.3731   -1.2041   -0.2545 O   0  0  0  0  0  0  0  0  0  0  0  0
    2.4003    0.0393   -0.0958 P   0  0  0  0  0  0  0  0  0  0  0  0
    3.1753    1.7939   -0.4688 S   0  0  0  0  0  0  0  0  0  0  0  0
    1.9015   -0.0915    1.3893 O   0  0  0  0  0  0  0  0  0  0  0  0
    1.3799   -1.3260    1.9424 C   0  0  0  0  0  0  0  0  0  0  0  0
    2.4345   -2.0084    2.7881 C   0  0  0  0  0  0  0  0  0  0  0  0
    0.7562   -0.5067   -1.3509 S   0  0  0  0  0  0  0  0  0  0  0  0
    0.0233    1.1414   -1.4138 C   0  0  0  0  0  0  0  0  0  0  0  0
   -0.6272    1.6745    0.1930 S   0  0  0  0  0  0  0  0  0  0  0  0
   -2.3698    0.4815    0.1425 P   0  0  0  0  0  0  0  0  0  0  0  0
   -3.2671    0.3616   -1.6008 S   0  0  0  0  0  0  0  0  0  0  0  0
   -3.2315    1.0545    1.3493 O   0  0  0  0  0  0  0  0  0  0  0  0
   -3.9314    2.3140    1.2760 C   0  0  0  0  0  0  0  0  0  0  0  0
   -5.3703    2.1073    0.8439 C   0  0  0  0  0  0  0  0  0  0  0  0
   -1.8753   -0.8888    0.7533 O   0  0  0  0  0  0  0  0  0  0  0  0
   -2.5711   -2.1383    0.5135 C   0  0  0  0  0  0  0  0  0  0  0  0
   -1.5572   -3.2302    0.2412 C   0  0  0  0  0  0  0  0  0  0  0  0
    5.7249   -2.6583   -2.1132 H   0  0  0  0  0  0  0  0  0  0  0  0
    5.8412   -2.1279   -0.4286 H   0  0  0  0  0  0  0  0  0  0  0  0
    4.6938   -3.3974   -0.8778 H   0  0  0  0  0  0  0  0  0  0  0  0
    3.4010   -1.7542   -2.2451 H   0  0  0  0  0  0  0  0  0  0  0  0
    4.5535   -0.4731   -1.7894 H   0  0  0  0  0  0  0  0  0  0  0  0
    0.5163   -1.0205    2.5372 H   0  0  0  0  0  0  0  0  0  0  0  0
    1.0522   -1.9686    1.1211 H   0  0  0  0  0  0  0  0  0  0  0  0
    2.7796   -1.3340    3.5670 H   0  0  0  0  0  0  0  0  0  0  0  0
    2.0072   -2.8956    3.2448 H   0  0  0  0  0  0  0  0  0  0  0  0
    3.2819   -2.2930    2.1702 H   0  0  0  0  0  0  0  0  0  0  0  0
   -0.7881    1.1073   -2.1420 H   0  0  0  0  0  0  0  0  0  0  0  0
    0.7889    1.8639   -1.6974 H   0  0  0  0  0  0  0  0  0  0  0  0
   -3.8735    2.7192    2.2879 H   0  0  0  0  0  0  0  0  0  0  0  0
   -3.4048    2.9807    0.5873 H   0  0  0  0  0  0  0  0  0  0  0  0
   -5.8888    3.0604    0.8618 H   0  0  0  0  0  0  0  0  0  0  0  0
   -5.4071    1.7027   -0.1652 H   0  0  0  0  0  0  0  0  0  0  0  0
   -5.8660    1.4145    1.5180 H   0  0  0  0  0  0  0  0  0  0  0  0
   -3.1599   -2.3493    1.4080 H   0  0  0  0  0  0  0  0  0  0  0  0
   -3.2432   -2.0054   -0.3410 H   0  0  0  0  0  0  0  0  0  0  0  0
   -0.9427   -2.9635   -0.6157 H   0  0  0  0  0  0  0  0  0  0  0  0
   -0.9202   -3.3790    1.1080 H   0  0  0  0  0  0  0  0  0  0  0  0
   -2.0869   -4.1524    0.0244 H   0  0  0  0  0  0  0  0  0  0  0  0
  1  2  1  0  0  0  0
  2  3  1  0  0  0  0
  3  4  2  0  0  0  0
  4  5  2  0  0  0  0
  4  6  2  0  0  0  0
  6  7  1  0  0  0  0
  7  8  1  0  0  0  0
  4  9  1  0  0  0  0
  9 10  1  0  0  0  0
 10 11  1  0  0  0  0
 11 12  1  0  0  0  0
 12 13  2  0  0  0  0
 12 14  2  0  0  0  0
 14 15  1  0  0  0  0
 15 16  1  0  0  0  0
 12 17  2  0  0  0  0
 17 18  1  0  0  0  0
 18 19  1  0  0  0  0
  1 20  1  0  0  0  0
  1 21  1  0  0  0  0
  1 22  1  0  0  0  0
  2 23  1  0  0  0  0
  2 24  1  0  0  0  0
  7 25  1  0  0  0  0
  7 26  1  0  0  0  0
  8 27  1  0  0  0  0
  8 28  1  0  0  0  0
  8 29  1  0  0  0  0
 10 30  1  0  0  0  0
 10 31  1  0  0  0  0
 15 32  1  0  0  0  0
 15 33  1  0  0  0  0
 16 34  1  0  0  0  0
 16 35  1  0  0  0  0
 16 36  1  0  0  0  0
 18 37  1  0  0  0  0
 18 38  1  0  0  0  0
 19 39  1  0  0  0  0
 19 40  1  0  0  0  0
 19 41  1  0  0  0  0
M  END
