 xtb: 6.7.1 (edcfbbe)
          04092505213D

 41 40  0     0  0            999 V2000
    4.4544   -2.3269   -0.7610 C   0  0  0  0  0  0  0  0  0  0  0  0
    5.0195   -0.9252   -0.6630 C   0  0  0  0  0  0  0  0  0  0  0  0
    4.1308   -0.0211    0.0203 O   0  0  0  0  0  0  0  0  0  0  0  0
    2.7099    0.3854   -0.5595 P   0  0  0  0  0  0  0  0  0  0  0  0
    2.6081    0.6722   -2.4954 S   0  0  0  0  0  0  0  0  0  0  0  0
    2.3820    1.7144    0.2241 O   0  0  0  0  0  0  0  0  0  0  0  0
    2.8073    2.0463    1.5686 C   0  0  0  0  0  0  0  0  0  0  0  0
    2.2274    1.1131    2.6097 C   0  0  0  0  0  0  0  0  0  0  0  0
    1.3789   -1.1192    0.1542 S   0  0  0  0  0  0  0  0  0  0  0  0
   -0.0367   -0.5936   -0.8250 C   0  0  0  0  0  0  0  0  0  0  0  0
   -0.8095    0.9216   -0.1468 S   0  0  0  0  0  0  0  0  0  0  0  0
   -2.7518    0.1541    0.1658 P   0  0  0  0  0  0  0  0  0  0  0  0
   -4.0373    1.3263    1.0629 S   0  0  0  0  0  0  0  0  0  0  0  0
   -2.5599   -1.2813    0.8357 O   0  0  0  0  0  0  0  0  0  0  0  0
   -2.5602   -1.4659    2.2612 C   0  0  0  0  0  0  0  0  0  0  0  0
   -1.3265   -0.8695    2.9073 C   0  0  0  0  0  0  0  0  0  0  0  0
   -3.0829   -0.2500   -1.3346 O   0  0  0  0  0  0  0  0  0  0  0  0
   -4.4377   -0.4506   -1.7883 C   0  0  0  0  0  0  0  0  0  0  0  0
   -5.0742   -1.6706   -1.1561 C   0  0  0  0  0  0  0  0  0  0  0  0
    5.2145   -2.9903   -1.1609 H   0  0  0  0  0  0  0  0  0  0  0  0
    4.1436   -2.6813    0.2185 H   0  0  0  0  0  0  0  0  0  0  0  0
    3.5940   -2.3358   -1.4281 H   0  0  0  0  0  0  0  0  0  0  0  0
    5.2214   -0.5216   -1.6599 H   0  0  0  0  0  0  0  0  0  0  0  0
    5.9279   -0.8973   -0.0595 H   0  0  0  0  0  0  0  0  0  0  0  0
    3.8986    2.0337    1.5933 H   0  0  0  0  0  0  0  0  0  0  0  0
    2.4419    3.0665    1.6962 H   0  0  0  0  0  0  0  0  0  0  0  0
    2.6243    0.1082    2.4825 H   0  0  0  0  0  0  0  0  0  0  0  0
    2.4936    1.4774    3.5969 H   0  0  0  0  0  0  0  0  0  0  0  0
    1.1442    1.0818    2.5222 H   0  0  0  0  0  0  0  0  0  0  0  0
   -0.7632   -1.4008   -0.8144 H   0  0  0  0  0  0  0  0  0  0  0  0
    0.2996   -0.3709   -1.8386 H   0  0  0  0  0  0  0  0  0  0  0  0
   -3.4671   -1.0069    2.6677 H   0  0  0  0  0  0  0  0  0  0  0  0
   -2.5991   -2.5486    2.3864 H   0  0  0  0  0  0  0  0  0  0  0  0
   -0.4252   -1.2759    2.4529 H   0  0  0  0  0  0  0  0  0  0  0  0
   -1.3360    0.2132    2.7798 H   0  0  0  0  0  0  0  0  0  0  0  0
   -1.3287   -1.0977    3.9681 H   0  0  0  0  0  0  0  0  0  0  0  0
   -5.0156    0.4496   -1.5569 H   0  0  0  0  0  0  0  0  0  0  0  0
   -4.3354   -0.5583   -2.8690 H   0  0  0  0  0  0  0  0  0  0  0  0
   -4.4483   -2.5458   -1.3095 H   0  0  0  0  0  0  0  0  0  0  0  0
   -5.2020   -1.5087   -0.0867 H   0  0  0  0  0  0  0  0  0  0  0  0
   -6.0479   -1.8394   -1.6054 H   0  0  0  0  0  0  0  0  0  0  0  0
  1  2  1  0  0  0  0
  2  3  1  0  0  0  0
  3  4  2  0  0  0  0
  4  5  2  0  0  0  0
  4  6  2  0  0  0  0
  6  7  1  0  0  0  0
  7  8  1  0  0  0  0
  4  9  1  0  0  0  0
  9 10  1  0  0  0  0
 10 11  1  0  0  0  0
 11 12  1  0  0  0  0
 12 13  2  0  0  0  0
 12 14  2  0  0  0  0
 14 15  1  0  0  0  0
 15 16  1  0  0  0  0
 12 17  2  0  0  0  0
 17 18  1  0  0  0  0
 18 19  1  0  0  0  0
  1 20  1  0  0  0  0
  1 21  1  0  0  0  0
  1 22  1  0  0  0  0
  2 23  1  0  0  0  0
  2 24  1  0  0  0  0
  7 25  1  0  0  0  0
  7 26  1  0  0  0  0
  8 27  1  0  0  0  0
  8 28  1  0  0  0  0
  8 29  1  0  0  0  0
 10 30  1  0  0  0  0
 10 31  1  0  0  0  0
 15 32  1  0  0  0  0
 15 33  1  0  0  0  0
 16 34  1  0  0  0  0
 16 35  1  0  0  0  0
 16 36  1  0  0  0  0
 18 37  1  0  0  0  0
 18 38  1  0  0  0  0
 19 39  1  0  0  0  0
 19 40  1  0  0  0  0
 19 41  1  0  0  0  0
M  END
