 xtb: 6.7.1 (edcfbbe)
          04092505213D

 41 40  0     0  0            999 V2000
    5.3255   -1.9419   -1.2450 C   0  0  0  0  0  0  0  0  0  0  0  0
    4.0388   -1.3739   -1.8116 C   0  0  0  0  0  0  0  0  0  0  0  0
    2.9792   -1.5588   -0.8506 O   0  0  0  0  0  0  0  0  0  0  0  0
    2.0857   -0.3584   -0.3092 P   0  0  0  0  0  0  0  0  0  0  0  0
    3.0908    1.2783    0.0976 S   0  0  0  0  0  0  0  0  0  0  0  0
    1.3318   -1.0713    0.8835 O   0  0  0  0  0  0  0  0  0  0  0  0
    1.8464   -1.0812    2.2351 C   0  0  0  0  0  0  0  0  0  0  0  0
    1.0856   -0.0912    3.0943 C   0  0  0  0  0  0  0  0  0  0  0  0
    0.5515   -0.2186   -1.7457 S   0  0  0  0  0  0  0  0  0  0  0  0
   -0.0107    1.4584   -1.3343 C   0  0  0  0  0  0  0  0  0  0  0  0
   -0.5528    1.6257    0.3827 S   0  0  0  0  0  0  0  0  0  0  0  0
   -2.2382    0.3577    0.2786 P   0  0  0  0  0  0  0  0  0  0  0  0
   -3.2086    0.2718   -1.4272 S   0  0  0  0  0  0  0  0  0  0  0  0
   -3.0771    0.7801    1.5631 O   0  0  0  0  0  0  0  0  0  0  0  0
   -3.4904    2.1169    1.9036 C   0  0  0  0  0  0  0  0  0  0  0  0
   -4.1844    2.8335    0.7641 C   0  0  0  0  0  0  0  0  0  0  0  0
   -1.6768   -1.0332    0.7893 O   0  0  0  0  0  0  0  0  0  0  0  0
   -2.2297   -2.3118    0.4103 C   0  0  0  0  0  0  0  0  0  0  0  0
   -1.3575   -2.9926   -0.6260 C   0  0  0  0  0  0  0  0  0  0  0  0
    5.1835   -2.9832   -0.9705 H   0  0  0  0  0  0  0  0  0  0  0  0
    6.1075   -1.8693   -1.9937 H   0  0  0  0  0  0  0  0  0  0  0  0
    5.6242   -1.3807   -0.3628 H   0  0  0  0  0  0  0  0  0  0  0  0
    3.7314   -1.9003   -2.7172 H   0  0  0  0  0  0  0  0  0  0  0  0
    4.1471   -0.3064   -2.0267 H   0  0  0  0  0  0  0  0  0  0  0  0
    1.7031   -2.1057    2.5821 H   0  0  0  0  0  0  0  0  0  0  0  0
    2.9139   -0.8439    2.2171 H   0  0  0  0  0  0  0  0  0  0  0  0
    1.4018   -0.1950    4.1273 H   0  0  0  0  0  0  0  0  0  0  0  0
    1.2819    0.9257    2.7604 H   0  0  0  0  0  0  0  0  0  0  0  0
    0.0173   -0.2816    3.0211 H   0  0  0  0  0  0  0  0  0  0  0  0
   -0.8400    1.6727   -2.0081 H   0  0  0  0  0  0  0  0  0  0  0  0
    0.8078    2.1646   -1.4665 H   0  0  0  0  0  0  0  0  0  0  0  0
   -4.1639    1.9679    2.7496 H   0  0  0  0  0  0  0  0  0  0  0  0
   -2.6056    2.6719    2.2277 H   0  0  0  0  0  0  0  0  0  0  0  0
   -5.0177    2.2412    0.3932 H   0  0  0  0  0  0  0  0  0  0  0  0
   -4.5529    3.7923    1.1144 H   0  0  0  0  0  0  0  0  0  0  0  0
   -3.4878    3.0001   -0.0564 H   0  0  0  0  0  0  0  0  0  0  0  0
   -2.2659   -2.8837    1.3389 H   0  0  0  0  0  0  0  0  0  0  0  0
   -3.2438   -2.1665    0.0270 H   0  0  0  0  0  0  0  0  0  0  0  0
   -0.3244   -3.0167   -0.2874 H   0  0  0  0  0  0  0  0  0  0  0  0
   -1.7116   -4.0069   -0.7792 H   0  0  0  0  0  0  0  0  0  0  0  0
   -1.4018   -2.4532   -1.5700 H   0  0  0  0  0  0  0  0  0  0  0  0
  1  2  1  0  0  0  0
  2  3  1  0  0  0  0
  3  4  2  0  0  0  0
  4  5  2  0  0  0  0
  4  6  2  0  0  0  0
  6  7  1  0  0  0  0
  7  8  1  0  0  0  0
  4  9  1  0  0  0  0
  9 10  1  0  0  0  0
 10 11  1  0  0  0  0
 11 12  1  0  0  0  0
 12 13  2  0  0  0  0
 12 14  2  0  0  0  0
 14 15  1  0  0  0  0
 15 16  1  0  0  0  0
 12 17  2  0  0  0  0
 17 18  1  0  0  0  0
 18 19  1  0  0  0  0
  1 20  1  0  0  0  0
  1 21  1  0  0  0  0
  1 22  1  0  0  0  0
  2 23  1  0  0  0  0
  2 24  1  0  0  0  0
  7 25  1  0  0  0  0
  7 26  1  0  0  0  0
  8 27  1  0  0  0  0
  8 28  1  0  0  0  0
  8 29  1  0  0  0  0
 10 30  1  0  0  0  0
 10 31  1  0  0  0  0
 15 32  1  0  0  0  0
 15 33  1  0  0  0  0
 16 34  1  0  0  0  0
 16 35  1  0  0  0  0
 16 36  1  0  0  0  0
 18 37  1  0  0  0  0
 18 38  1  0  0  0  0
 19 39  1  0  0  0  0
 19 40  1  0  0  0  0
 19 41  1  0  0  0  0
M  END
