 xtb: 6.7.1 (edcfbbe)
          04092505213D

 41 40  0     0  0            999 V2000
    2.0186   -0.7048   -3.1857 C   0  0  0  0  0  0  0  0  0  0  0  0
    2.2672    0.5709   -2.4037 C   0  0  0  0  0  0  0  0  0  0  0  0
    3.0787    0.3242   -1.2398 O   0  0  0  0  0  0  0  0  0  0  0  0
    2.4782    0.0851    0.2040 P   0  0  0  0  0  0  0  0  0  0  0  0
    1.1439    1.4099    0.7963 S   0  0  0  0  0  0  0  0  0  0  0  0
    3.8692    0.1184    0.9515 O   0  0  0  0  0  0  0  0  0  0  0  0
    3.9774    0.3462    2.3677 C   0  0  0  0  0  0  0  0  0  0  0  0
    3.3502   -0.7667    3.1839 C   0  0  0  0  0  0  0  0  0  0  0  0
    1.8827   -1.9570    0.2637 S   0  0  0  0  0  0  0  0  0  0  0  0
    0.1089   -1.7835    0.5652 C   0  0  0  0  0  0  0  0  0  0  0  0
   -0.7981   -1.0803   -0.8526 S   0  0  0  0  0  0  0  0  0  0  0  0
   -2.0722    0.3050    0.1560 P   0  0  0  0  0  0  0  0  0  0  0  0
   -2.0615    0.2292    2.1085 S   0  0  0  0  0  0  0  0  0  0  0  0
   -3.4861   -0.0252   -0.5022 O   0  0  0  0  0  0  0  0  0  0  0  0
   -4.1827   -1.2474   -0.1910 C   0  0  0  0  0  0  0  0  0  0  0  0
   -5.6142   -1.1029   -0.6665 C   0  0  0  0  0  0  0  0  0  0  0  0
   -1.7813    1.7332   -0.4303 O   0  0  0  0  0  0  0  0  0  0  0  0
   -1.7338    2.0215   -1.8504 C   0  0  0  0  0  0  0  0  0  0  0  0
   -3.0543    2.5863   -2.3308 C   0  0  0  0  0  0  0  0  0  0  0  0
    1.5359   -0.4554   -4.1250 H   0  0  0  0  0  0  0  0  0  0  0  0
    2.9635   -1.2011   -3.3871 H   0  0  0  0  0  0  0  0  0  0  0  0
    1.3752   -1.3830   -2.6293 H   0  0  0  0  0  0  0  0  0  0  0  0
    1.3272    1.0398   -2.0913 H   0  0  0  0  0  0  0  0  0  0  0  0
    2.8469    1.2856   -2.9912 H   0  0  0  0  0  0  0  0  0  0  0  0
    5.0531    0.4114    2.5374 H   0  0  0  0  0  0  0  0  0  0  0  0
    3.5066    1.3064    2.6024 H   0  0  0  0  0  0  0  0  0  0  0  0
    3.7326   -1.7328    2.8641 H   0  0  0  0  0  0  0  0  0  0  0  0
    3.5820   -0.6157    4.2335 H   0  0  0  0  0  0  0  0  0  0  0  0
    2.2671   -0.7553    3.0621 H   0  0  0  0  0  0  0  0  0  0  0  0
   -0.0762   -1.1417    1.4304 H   0  0  0  0  0  0  0  0  0  0  0  0
   -0.2548   -2.7926    0.7411 H   0  0  0  0  0  0  0  0  0  0  0  0
   -3.6735   -2.0696   -0.7020 H   0  0  0  0  0  0  0  0  0  0  0  0
   -4.1333   -1.4095    0.8910 H   0  0  0  0  0  0  0  0  0  0  0  0
   -5.6356   -0.9292   -1.7384 H   0  0  0  0  0  0  0  0  0  0  0  0
   -6.1575   -2.0141   -0.4394 H   0  0  0  0  0  0  0  0  0  0  0  0
   -6.0911   -0.2666   -0.1631 H   0  0  0  0  0  0  0  0  0  0  0  0
   -0.9269    2.7510   -1.9497 H   0  0  0  0  0  0  0  0  0  0  0  0
   -1.4746    1.1053   -2.3898 H   0  0  0  0  0  0  0  0  0  0  0  0
   -2.9638    2.8524   -3.3792 H   0  0  0  0  0  0  0  0  0  0  0  0
   -3.8440    1.8499   -2.2111 H   0  0  0  0  0  0  0  0  0  0  0  0
   -3.3104    3.4716   -1.7552 H   0  0  0  0  0  0  0  0  0  0  0  0
  1  2  1  0  0  0  0
  2  3  1  0  0  0  0
  3  4  2  0  0  0  0
  4  5  2  0  0  0  0
  4  6  2  0  0  0  0
  6  7  1  0  0  0  0
  7  8  1  0  0  0  0
  4  9  1  0  0  0  0
  9 10  1  0  0  0  0
 10 11  1  0  0  0  0
 11 12  1  0  0  0  0
 12 13  2  0  0  0  0
 12 14  2  0  0  0  0
 14 15  1  0  0  0  0
 15 16  1  0  0  0  0
 12 17  2  0  0  0  0
 17 18  1  0  0  0  0
 18 19  1  0  0  0  0
  1 20  1  0  0  0  0
  1 21  1  0  0  0  0
  1 22  1  0  0  0  0
  2 23  1  0  0  0  0
  2 24  1  0  0  0  0
  7 25  1  0  0  0  0
  7 26  1  0  0  0  0
  8 27  1  0  0  0  0
  8 28  1  0  0  0  0
  8 29  1  0  0  0  0
 10 30  1  0  0  0  0
 10 31  1  0  0  0  0
 15 32  1  0  0  0  0
 15 33  1  0  0  0  0
 16 34  1  0  0  0  0
 16 35  1  0  0  0  0
 16 36  1  0  0  0  0
 18 37  1  0  0  0  0
 18 38  1  0  0  0  0
 19 39  1  0  0  0  0
 19 40  1  0  0  0  0
 19 41  1  0  0  0  0
M  END
