 xtb: 6.7.1 (edcfbbe)
          04092505213D

 41 40  0     0  0            999 V2000
    4.6247    2.5922   -0.6269 C   0  0  0  0  0  0  0  0  0  0  0  0
    3.2406    2.0142   -0.4119 C   0  0  0  0  0  0  0  0  0  0  0  0
    3.3934    0.6744    0.1015 O   0  0  0  0  0  0  0  0  0  0  0  0
    2.2266   -0.0490    0.8956 P   0  0  0  0  0  0  0  0  0  0  0  0
    1.4403    0.9579    2.3730 S   0  0  0  0  0  0  0  0  0  0  0  0
    2.8873   -1.3890    1.3935 O   0  0  0  0  0  0  0  0  0  0  0  0
    3.6602   -2.2727    0.5413 C   0  0  0  0  0  0  0  0  0  0  0  0
    5.1386   -1.9607    0.6450 C   0  0  0  0  0  0  0  0  0  0  0  0
    0.9012   -0.6471   -0.6784 S   0  0  0  0  0  0  0  0  0  0  0  0
   -0.3161   -1.4543    0.3980 C   0  0  0  0  0  0  0  0  0  0  0  0
   -1.6227   -0.3440    0.9767 S   0  0  0  0  0  0  0  0  0  0  0  0
   -2.5351   -0.0616   -0.9346 P   0  0  0  0  0  0  0  0  0  0  0  0
   -2.4373   -1.5712   -2.1695 S   0  0  0  0  0  0  0  0  0  0  0  0
   -1.8813    1.2396   -1.5402 O   0  0  0  0  0  0  0  0  0  0  0  0
   -1.9194    2.5342   -0.8828 C   0  0  0  0  0  0  0  0  0  0  0  0
   -0.5144    2.9691   -0.5196 C   0  0  0  0  0  0  0  0  0  0  0  0
   -3.9982    0.4526   -0.5766 O   0  0  0  0  0  0  0  0  0  0  0  0
   -5.1080   -0.4404   -0.3694 C   0  0  0  0  0  0  0  0  0  0  0  0
   -4.9308   -1.3094    0.8586 C   0  0  0  0  0  0  0  0  0  0  0  0
    5.1648    2.6271    0.3151 H   0  0  0  0  0  0  0  0  0  0  0  0
    5.1805    1.9800   -1.3313 H   0  0  0  0  0  0  0  0  0  0  0  0
    4.5314    3.5981   -1.0225 H   0  0  0  0  0  0  0  0  0  0  0  0
    2.6822    1.9534   -1.3496 H   0  0  0  0  0  0  0  0  0  0  0  0
    2.6693    2.6033    0.3127 H   0  0  0  0  0  0  0  0  0  0  0  0
    3.4382   -3.2734    0.9165 H   0  0  0  0  0  0  0  0  0  0  0  0
    3.3038   -2.1741   -0.4877 H   0  0  0  0  0  0  0  0  0  0  0  0
    5.3408   -0.9620    0.2682 H   0  0  0  0  0  0  0  0  0  0  0  0
    5.4583   -2.0159    1.6820 H   0  0  0  0  0  0  0  0  0  0  0  0
    5.6954   -2.6852    0.0589 H   0  0  0  0  0  0  0  0  0  0  0  0
    0.1796   -1.8431    1.2855 H   0  0  0  0  0  0  0  0  0  0  0  0
   -0.7666   -2.2522   -0.1926 H   0  0  0  0  0  0  0  0  0  0  0  0
   -2.3671    3.2100   -1.6131 H   0  0  0  0  0  0  0  0  0  0  0  0
   -2.5578    2.4722    0.0009 H   0  0  0  0  0  0  0  0  0  0  0  0
    0.1254    2.9231   -1.3968 H   0  0  0  0  0  0  0  0  0  0  0  0
   -0.5423    3.9877   -0.1463 H   0  0  0  0  0  0  0  0  0  0  0  0
   -0.1010    2.3268    0.2562 H   0  0  0  0  0  0  0  0  0  0  0  0
   -5.9624    0.2304   -0.2690 H   0  0  0  0  0  0  0  0  0  0  0  0
   -5.2220   -1.0589   -1.2648 H   0  0  0  0  0  0  0  0  0  0  0  0
   -5.8471   -1.8619    1.0403 H   0  0  0  0  0  0  0  0  0  0  0  0
   -4.1185   -2.0171    0.7002 H   0  0  0  0  0  0  0  0  0  0  0  0
   -4.6992   -0.6978    1.7273 H   0  0  0  0  0  0  0  0  0  0  0  0
  1  2  1  0  0  0  0
  2  3  1  0  0  0  0
  3  4  2  0  0  0  0
  4  5  2  0  0  0  0
  4  6  2  0  0  0  0
  6  7  1  0  0  0  0
  7  8  1  0  0  0  0
  4  9  1  0  0  0  0
  9 10  1  0  0  0  0
 10 11  1  0  0  0  0
 11 12  1  0  0  0  0
 12 13  2  0  0  0  0
 12 14  2  0  0  0  0
 14 15  1  0  0  0  0
 15 16  1  0  0  0  0
 12 17  2  0  0  0  0
 17 18  1  0  0  0  0
 18 19  1  0  0  0  0
  1 20  1  0  0  0  0
  1 21  1  0  0  0  0
  1 22  1  0  0  0  0
  2 23  1  0  0  0  0
  2 24  1  0  0  0  0
  7 25  1  0  0  0  0
  7 26  1  0  0  0  0
  8 27  1  0  0  0  0
  8 28  1  0  0  0  0
  8 29  1  0  0  0  0
 10 30  1  0  0  0  0
 10 31  1  0  0  0  0
 15 32  1  0  0  0  0
 15 33  1  0  0  0  0
 16 34  1  0  0  0  0
 16 35  1  0  0  0  0
 16 36  1  0  0  0  0
 18 37  1  0  0  0  0
 18 38  1  0  0  0  0
 19 39  1  0  0  0  0
 19 40  1  0  0  0  0
 19 41  1  0  0  0  0
M  END
