 xtb: 6.7.1 (edcfbbe)
          04092505213D

 41 40  0     0  0            999 V2000
    2.7498    2.1635   -2.0485 C   0  0  0  0  0  0  0  0  0  0  0  0
    3.3136    1.2518   -0.9784 C   0  0  0  0  0  0  0  0  0  0  0  0
    2.2904    1.0453    0.0314 O   0  0  0  0  0  0  0  0  0  0  0  0
    2.0974   -0.3213    0.7915 P   0  0  0  0  0  0  0  0  0  0  0  0
    0.6376   -0.1430    2.0819 S   0  0  0  0  0  0  0  0  0  0  0  0
    3.5656   -0.5768    1.3425 O   0  0  0  0  0  0  0  0  0  0  0  0
    4.0852   -1.8425    1.7922 C   0  0  0  0  0  0  0  0  0  0  0  0
    3.2205   -2.4861    2.8555 C   0  0  0  0  0  0  0  0  0  0  0  0
    1.8843   -1.8533   -0.6811 S   0  0  0  0  0  0  0  0  0  0  0  0
    0.1131   -1.6886   -0.9455 C   0  0  0  0  0  0  0  0  0  0  0  0
   -0.3010   -0.0592   -1.6678 S   0  0  0  0  0  0  0  0  0  0  0  0
   -2.1497    0.3047   -0.7273 P   0  0  0  0  0  0  0  0  0  0  0  0
   -2.6956   -0.9065    0.7214 S   0  0  0  0  0  0  0  0  0  0  0  0
   -3.0934    0.2499   -1.9975 O   0  0  0  0  0  0  0  0  0  0  0  0
   -4.5132    0.0277   -1.8916 C   0  0  0  0  0  0  0  0  0  0  0  0
   -5.2172    1.2119   -1.2640 C   0  0  0  0  0  0  0  0  0  0  0  0
   -2.1305    1.8719   -0.4551 O   0  0  0  0  0  0  0  0  0  0  0  0
   -1.2963    2.5490    0.4982 C   0  0  0  0  0  0  0  0  0  0  0  0
   -1.8946    2.5140    1.8903 C   0  0  0  0  0  0  0  0  0  0  0  0
    2.4401    3.1073   -1.6094 H   0  0  0  0  0  0  0  0  0  0  0  0
    3.5145    2.3480   -2.7959 H   0  0  0  0  0  0  0  0  0  0  0  0
    1.8887    1.6978   -2.5220 H   0  0  0  0  0  0  0  0  0  0  0  0
    4.1710    1.7007   -0.4743 H   0  0  0  0  0  0  0  0  0  0  0  0
    3.6012    0.2820   -1.3941 H   0  0  0  0  0  0  0  0  0  0  0  0
    4.1818   -2.4983    0.9227 H   0  0  0  0  0  0  0  0  0  0  0  0
    5.0732   -1.5893    2.1804 H   0  0  0  0  0  0  0  0  0  0  0  0
    3.0738   -1.8046    3.6904 H   0  0  0  0  0  0  0  0  0  0  0  0
    2.2438   -2.7387    2.4443 H   0  0  0  0  0  0  0  0  0  0  0  0
    3.6988   -3.3930    3.2110 H   0  0  0  0  0  0  0  0  0  0  0  0
   -0.4193   -1.7887    0.0055 H   0  0  0  0  0  0  0  0  0  0  0  0
   -0.1682   -2.4748   -1.6416 H   0  0  0  0  0  0  0  0  0  0  0  0
   -4.8294   -0.1364   -2.9224 H   0  0  0  0  0  0  0  0  0  0  0  0
   -4.6786   -0.8781   -1.2993 H   0  0  0  0  0  0  0  0  0  0  0  0
   -6.2898    1.0455   -1.2782 H   0  0  0  0  0  0  0  0  0  0  0  0
   -4.8888    1.3264   -0.2314 H   0  0  0  0  0  0  0  0  0  0  0  0
   -4.9814    2.1217   -1.8095 H   0  0  0  0  0  0  0  0  0  0  0  0
   -0.2974    2.1006    0.4957 H   0  0  0  0  0  0  0  0  0  0  0  0
   -1.2371    3.5702    0.1168 H   0  0  0  0  0  0  0  0  0  0  0  0
   -1.9163    1.4928    2.2668 H   0  0  0  0  0  0  0  0  0  0  0  0
   -1.2813    3.1117    2.5569 H   0  0  0  0  0  0  0  0  0  0  0  0
   -2.9068    2.9089    1.8760 H   0  0  0  0  0  0  0  0  0  0  0  0
  1  2  1  0  0  0  0
  2  3  1  0  0  0  0
  3  4  2  0  0  0  0
  4  5  2  0  0  0  0
  4  6  2  0  0  0  0
  6  7  1  0  0  0  0
  7  8  1  0  0  0  0
  4  9  1  0  0  0  0
  9 10  1  0  0  0  0
 10 11  1  0  0  0  0
 11 12  1  0  0  0  0
 12 13  2  0  0  0  0
 12 14  2  0  0  0  0
 14 15  1  0  0  0  0
 15 16  1  0  0  0  0
 12 17  2  0  0  0  0
 17 18  1  0  0  0  0
 18 19  1  0  0  0  0
  1 20  1  0  0  0  0
  1 21  1  0  0  0  0
  1 22  1  0  0  0  0
  2 23  1  0  0  0  0
  2 24  1  0  0  0  0
  7 25  1  0  0  0  0
  7 26  1  0  0  0  0
  8 27  1  0  0  0  0
  8 28  1  0  0  0  0
  8 29  1  0  0  0  0
 10 30  1  0  0  0  0
 10 31  1  0  0  0  0
 15 32  1  0  0  0  0
 15 33  1  0  0  0  0
 16 34  1  0  0  0  0
 16 35  1  0  0  0  0
 16 36  1  0  0  0  0
 18 37  1  0  0  0  0
 18 38  1  0  0  0  0
 19 39  1  0  0  0  0
 19 40  1  0  0  0  0
 19 41  1  0  0  0  0
M  END
