 xtb: 6.7.1 (edcfbbe)
          04032520173D

 19 19  0     0  0            999 V2000
   -3.0762    0.3690    0.0008 C   0  0  0  0  0  0  0  0  0  0  0  0
   -1.6178    0.0227   -0.0005 C   0  0  0  0  0  0  0  0  0  0  0  0
   -1.1835   -1.2932   -0.0006 C   0  0  0  0  0  0  0  0  0  0  0  0
    0.1708   -1.5860   -0.0001 C   0  0  0  0  0  0  0  0  0  0  0  0
    1.1269   -0.5860    0.0003 C   0  0  0  0  0  0  0  0  0  0  0  0
    0.6889    0.7441   -0.0002 C   0  0  0  0  0  0  0  0  0  0  0  0
   -0.6657    1.0357   -0.0005 C   0  0  0  0  0  0  0  0  0  0  0  0
    1.6375    1.7253   -0.0001 O   0  0  0  0  0  0  0  0  0  0  0  0
    2.5950   -0.8800    0.0006 C   0  0  0  0  0  0  0  0  0  0  0  0
   -3.3235    0.9716   -0.8716 H   0  0  0  0  0  0  0  0  0  0  0  0
   -3.6862   -0.5299   -0.0122 H   0  0  0  0  0  0  0  0  0  0  0  0
   -3.3268    0.9476    0.8886 H   0  0  0  0  0  0  0  0  0  0  0  0
   -1.9042   -2.0975   -0.0007 H   0  0  0  0  0  0  0  0  0  0  0  0
    0.4929   -2.6172   -0.0001 H   0  0  0  0  0  0  0  0  0  0  0  0
   -0.9906    2.0675   -0.0004 H   0  0  0  0  0  0  0  0  0  0  0  0
    1.2167    2.5975   -0.0002 H   0  0  0  0  0  0  0  0  0  0  0  0
    3.0634   -0.4441   -0.8811 H   0  0  0  0  0  0  0  0  0  0  0  0
    3.0658   -0.4291    0.8732 H   0  0  0  0  0  0  0  0  0  0  0  0
    2.7750   -1.9511    0.0092 H   0  0  0  0  0  0  0  0  0  0  0  0
  1  2  1  0  0  0  0
  2  3  4  0  0  0  0
  3  4  4  0  0  0  0
  4  5  4  0  0  0  0
  5  6  4  0  0  0  0
  2  7  4  0  0  0  0
  6  7  4  0  0  0  0
  6  8  1  0  0  0  0
  5  9  1  0  0  0  0
  1 10  1  0  0  0  0
  1 11  1  0  0  0  0
  1 12  1  0  0  0  0
  3 13  1  0  0  0  0
  4 14  1  0  0  0  0
  7 15  1  0  0  0  0
  8 16  1  0  0  0  0
  9 17  1  0  0  0  0
  9 18  1  0  0  0  0
  9 19  1  0  0  0  0
M  END
