 xtb: 6.7.1 (edcfbbe)
          04092505213D

 41 40  0     0  0            999 V2000
    2.6763   -0.2893   -2.9412 C   0  0  0  0  0  0  0  0  0  0  0  0
    3.1934    0.5974   -1.8258 C   0  0  0  0  0  0  0  0  0  0  0  0
    2.1593    0.8361   -0.8341 O   0  0  0  0  0  0  0  0  0  0  0  0
    2.0233    0.0779    0.5331 P   0  0  0  0  0  0  0  0  0  0  0  0
    0.6580    0.8899    1.6767 S   0  0  0  0  0  0  0  0  0  0  0  0
    3.4973    0.1501    1.1181 O   0  0  0  0  0  0  0  0  0  0  0  0
    3.8108   -0.3483    2.4355 C   0  0  0  0  0  0  0  0  0  0  0  0
    5.1330    0.2581    2.8589 C   0  0  0  0  0  0  0  0  0  0  0  0
    1.8395   -2.0083    0.1408 S   0  0  0  0  0  0  0  0  0  0  0  0
    0.2072   -2.0428   -0.6390 C   0  0  0  0  0  0  0  0  0  0  0  0
   -1.1781   -1.7894    0.5231 S   0  0  0  0  0  0  0  0  0  0  0  0
   -2.0960   -0.1201   -0.3880 P   0  0  0  0  0  0  0  0  0  0  0  0
   -1.0247    0.8491   -1.7202 S   0  0  0  0  0  0  0  0  0  0  0  0
   -2.7380    0.7646    0.7607 O   0  0  0  0  0  0  0  0  0  0  0  0
   -2.3372    2.0929    1.1325 C   0  0  0  0  0  0  0  0  0  0  0  0
   -3.5545    2.9954    1.1000 C   0  0  0  0  0  0  0  0  0  0  0  0
   -3.3656   -0.9078   -0.9285 O   0  0  0  0  0  0  0  0  0  0  0  0
   -4.6198   -0.2911   -1.2862 C   0  0  0  0  0  0  0  0  0  0  0  0
   -4.5081    0.5639   -2.5323 C   0  0  0  0  0  0  0  0  0  0  0  0
    2.5431   -1.3114   -2.5952 H   0  0  0  0  0  0  0  0  0  0  0  0
    1.7237    0.0933   -3.3019 H   0  0  0  0  0  0  0  0  0  0  0  0
    3.3924   -0.2840   -3.7567 H   0  0  0  0  0  0  0  0  0  0  0  0
    3.4321    1.5956   -2.1955 H   0  0  0  0  0  0  0  0  0  0  0  0
    4.0649    0.1636   -1.3336 H   0  0  0  0  0  0  0  0  0  0  0  0
    3.0019   -0.0642    3.1167 H   0  0  0  0  0  0  0  0  0  0  0  0
    3.8675   -1.4385    2.3801 H   0  0  0  0  0  0  0  0  0  0  0  0
    5.0545    1.3414    2.8855 H   0  0  0  0  0  0  0  0  0  0  0  0
    5.3904   -0.1071    3.8476 H   0  0  0  0  0  0  0  0  0  0  0  0
    5.9128   -0.0220    2.1569 H   0  0  0  0  0  0  0  0  0  0  0  0
    0.1079   -3.0375   -1.0645 H   0  0  0  0  0  0  0  0  0  0  0  0
    0.1536   -1.2688   -1.4097 H   0  0  0  0  0  0  0  0  0  0  0  0
   -1.9049    2.0273    2.1334 H   0  0  0  0  0  0  0  0  0  0  0  0
   -1.5632    2.4412    0.4403 H   0  0  0  0  0  0  0  0  0  0  0  0
   -3.9460    3.0645    0.0877 H   0  0  0  0  0  0  0  0  0  0  0  0
   -4.3261    2.6010    1.7551 H   0  0  0  0  0  0  0  0  0  0  0  0
   -3.2671    3.9851    1.4389 H   0  0  0  0  0  0  0  0  0  0  0  0
   -5.2834   -1.1426   -1.4453 H   0  0  0  0  0  0  0  0  0  0  0  0
   -4.9714    0.2975   -0.4351 H   0  0  0  0  0  0  0  0  0  0  0  0
   -4.1102   -0.0222   -3.3568 H   0  0  0  0  0  0  0  0  0  0  0  0
   -5.4904    0.9410   -2.7990 H   0  0  0  0  0  0  0  0  0  0  0  0
   -3.8391    1.4051   -2.3570 H   0  0  0  0  0  0  0  0  0  0  0  0
  1  2  1  0  0  0  0
  2  3  1  0  0  0  0
  3  4  2  0  0  0  0
  4  5  2  0  0  0  0
  4  6  2  0  0  0  0
  6  7  1  0  0  0  0
  7  8  1  0  0  0  0
  4  9  1  0  0  0  0
  9 10  1  0  0  0  0
 10 11  1  0  0  0  0
 11 12  1  0  0  0  0
 12 13  2  0  0  0  0
 12 14  2  0  0  0  0
 14 15  1  0  0  0  0
 15 16  1  0  0  0  0
 12 17  2  0  0  0  0
 17 18  1  0  0  0  0
 18 19  1  0  0  0  0
  1 20  1  0  0  0  0
  1 21  1  0  0  0  0
  1 22  1  0  0  0  0
  2 23  1  0  0  0  0
  2 24  1  0  0  0  0
  7 25  1  0  0  0  0
  7 26  1  0  0  0  0
  8 27  1  0  0  0  0
  8 28  1  0  0  0  0
  8 29  1  0  0  0  0
 10 30  1  0  0  0  0
 10 31  1  0  0  0  0
 15 32  1  0  0  0  0
 15 33  1  0  0  0  0
 16 34  1  0  0  0  0
 16 35  1  0  0  0  0
 16 36  1  0  0  0  0
 18 37  1  0  0  0  0
 18 38  1  0  0  0  0
 19 39  1  0  0  0  0
 19 40  1  0  0  0  0
 19 41  1  0  0  0  0
M  END
