 xtb: 6.7.1 (edcfbbe)
          04092505213D

 41 40  0     0  0            999 V2000
    4.1253   -1.8622   -1.9008 C   0  0  0  0  0  0  0  0  0  0  0  0
    4.6451   -1.2526   -0.6147 C   0  0  0  0  0  0  0  0  0  0  0  0
    3.5932   -0.9893    0.3294 O   0  0  0  0  0  0  0  0  0  0  0  0
    2.4825    0.1206    0.0839 P   0  0  0  0  0  0  0  0  0  0  0  0
    3.1359    1.7643   -0.7550 S   0  0  0  0  0  0  0  0  0  0  0  0
    1.9387    0.4030    1.5358 O   0  0  0  0  0  0  0  0  0  0  0  0
    1.1087   -0.4647    2.3448 C   0  0  0  0  0  0  0  0  0  0  0  0
    1.6982   -1.8470    2.5233 C   0  0  0  0  0  0  0  0  0  0  0  0
    0.9212   -0.9023   -0.9556 S   0  0  0  0  0  0  0  0  0  0  0  0
    0.1352    0.5740   -1.6293 C   0  0  0  0  0  0  0  0  0  0  0  0
   -0.7124    1.5626   -0.3657 S   0  0  0  0  0  0  0  0  0  0  0  0
   -2.4587    0.3702   -0.2696 P   0  0  0  0  0  0  0  0  0  0  0  0
   -3.1544   -0.3688   -1.9357 S   0  0  0  0  0  0  0  0  0  0  0  0
   -3.5245    1.3201    0.4188 O   0  0  0  0  0  0  0  0  0  0  0  0
   -3.2683    1.9896    1.6793 C   0  0  0  0  0  0  0  0  0  0  0  0
   -4.5998    2.4526    2.2330 C   0  0  0  0  0  0  0  0  0  0  0  0
   -2.0281   -0.6915    0.8500 O   0  0  0  0  0  0  0  0  0  0  0  0
   -2.5942   -2.0218    0.9138 C   0  0  0  0  0  0  0  0  0  0  0  0
   -1.6803   -3.0296    0.2482 C   0  0  0  0  0  0  0  0  0  0  0  0
    3.5318   -1.1308   -2.4473 H   0  0  0  0  0  0  0  0  0  0  0  0
    4.9651   -2.1625   -2.5192 H   0  0  0  0  0  0  0  0  0  0  0  0
    3.5056   -2.7294   -1.6876 H   0  0  0  0  0  0  0  0  0  0  0  0
    5.1699   -0.3141   -0.8189 H   0  0  0  0  0  0  0  0  0  0  0  0
    5.3053   -1.9387   -0.0823 H   0  0  0  0  0  0  0  0  0  0  0  0
    1.0422    0.0719    3.2925 H   0  0  0  0  0  0  0  0  0  0  0  0
    0.1191   -0.5175    1.8831 H   0  0  0  0  0  0  0  0  0  0  0  0
    2.7041   -1.7774    2.9289 H   0  0  0  0  0  0  0  0  0  0  0  0
    1.0732   -2.4137    3.2069 H   0  0  0  0  0  0  0  0  0  0  0  0
    1.7432   -2.3640    1.5666 H   0  0  0  0  0  0  0  0  0  0  0  0
   -0.5892    0.2466   -2.3761 H   0  0  0  0  0  0  0  0  0  0  0  0
    0.8974    1.2213   -2.0647 H   0  0  0  0  0  0  0  0  0  0  0  0
   -2.7725    1.2883    2.3552 H   0  0  0  0  0  0  0  0  0  0  0  0
   -2.6000    2.8316    1.4811 H   0  0  0  0  0  0  0  0  0  0  0  0
   -4.4328    2.9823    3.1653 H   0  0  0  0  0  0  0  0  0  0  0  0
   -5.0851    3.1166    1.5235 H   0  0  0  0  0  0  0  0  0  0  0  0
   -5.2488    1.6002    2.4129 H   0  0  0  0  0  0  0  0  0  0  0  0
   -2.7037   -2.2232    1.9806 H   0  0  0  0  0  0  0  0  0  0  0  0
   -3.5774   -2.0148    0.4351 H   0  0  0  0  0  0  0  0  0  0  0  0
   -2.1028   -4.0222    0.3649 H   0  0  0  0  0  0  0  0  0  0  0  0
   -1.5856   -2.8062   -0.8123 H   0  0  0  0  0  0  0  0  0  0  0  0
   -0.6925   -3.0015    0.6979 H   0  0  0  0  0  0  0  0  0  0  0  0
  1  2  1  0  0  0  0
  2  3  1  0  0  0  0
  3  4  2  0  0  0  0
  4  5  2  0  0  0  0
  4  6  2  0  0  0  0
  6  7  1  0  0  0  0
  7  8  1  0  0  0  0
  4  9  1  0  0  0  0
  9 10  1  0  0  0  0
 10 11  1  0  0  0  0
 11 12  1  0  0  0  0
 12 13  2  0  0  0  0
 12 14  2  0  0  0  0
 14 15  1  0  0  0  0
 15 16  1  0  0  0  0
 12 17  1  0  0  0  0
 17 18  1  0  0  0  0
 18 19  1  0  0  0  0
  1 20  1  0  0  0  0
  1 21  1  0  0  0  0
  1 22  1  0  0  0  0
  2 23  1  0  0  0  0
  2 24  1  0  0  0  0
  7 25  1  0  0  0  0
  7 26  1  0  0  0  0
  8 27  1  0  0  0  0
  8 28  1  0  0  0  0
  8 29  1  0  0  0  0
 10 30  1  0  0  0  0
 10 31  1  0  0  0  0
 15 32  1  0  0  0  0
 15 33  1  0  0  0  0
 16 34  1  0  0  0  0
 16 35  1  0  0  0  0
 16 36  1  0  0  0  0
 18 37  1  0  0  0  0
 18 38  1  0  0  0  0
 19 39  1  0  0  0  0
 19 40  1  0  0  0  0
 19 41  1  0  0  0  0
M  END
