 xtb: 6.7.1 (edcfbbe)
          04092505203D

 41 40  0     0  0            999 V2000
    4.5664   -1.6997   -0.5730 C   0  0  0  0  0  0  0  0  0  0  0  0
    4.6056   -0.2170   -0.2651 C   0  0  0  0  0  0  0  0  0  0  0  0
    3.4554    0.2100    0.4846 O   0  0  0  0  0  0  0  0  0  0  0  0
    2.0010    0.2967   -0.1579 P   0  0  0  0  0  0  0  0  0  0  0  0
    2.0087    0.8628   -2.0417 S   0  0  0  0  0  0  0  0  0  0  0  0
    1.2524    1.1583    0.9396 O   0  0  0  0  0  0  0  0  0  0  0  0
    1.7180    2.4165    1.4696 C   0  0  0  0  0  0  0  0  0  0  0  0
    1.8918    3.4705    0.3962 C   0  0  0  0  0  0  0  0  0  0  0  0
    1.1401   -1.5879    0.2069 S   0  0  0  0  0  0  0  0  0  0  0  0
   -0.0119   -1.7037   -1.2030 C   0  0  0  0  0  0  0  0  0  0  0  0
   -1.7389   -1.8404   -0.6995 S   0  0  0  0  0  0  0  0  0  0  0  0
   -1.9698    0.0735    0.2031 P   0  0  0  0  0  0  0  0  0  0  0  0
   -1.3532    1.5786   -0.8883 S   0  0  0  0  0  0  0  0  0  0  0  0
   -1.2583    0.0283    1.6105 O   0  0  0  0  0  0  0  0  0  0  0  0
   -1.7670   -0.6063    2.8110 C   0  0  0  0  0  0  0  0  0  0  0  0
   -1.8909   -2.1095    2.6769 C   0  0  0  0  0  0  0  0  0  0  0  0
   -3.5057    0.1148    0.6087 O   0  0  0  0  0  0  0  0  0  0  0  0
   -4.5382    0.5570   -0.2906 C   0  0  0  0  0  0  0  0  0  0  0  0
   -4.7265   -0.3839   -1.4625 C   0  0  0  0  0  0  0  0  0  0  0  0
    4.3980   -2.2706    0.3365 H   0  0  0  0  0  0  0  0  0  0  0  0
    3.7620   -1.9114   -1.2756 H   0  0  0  0  0  0  0  0  0  0  0  0
    5.5100   -1.9973   -1.0186 H   0  0  0  0  0  0  0  0  0  0  0  0
    4.6500    0.3661   -1.1907 H   0  0  0  0  0  0  0  0  0  0  0  0
    5.4476    0.0401    0.3791 H   0  0  0  0  0  0  0  0  0  0  0  0
    0.9332    2.6959    2.1752 H   0  0  0  0  0  0  0  0  0  0  0  0
    2.6554    2.2357    2.0011 H   0  0  0  0  0  0  0  0  0  0  0  0
    2.1322    4.4230    0.8577 H   0  0  0  0  0  0  0  0  0  0  0  0
    2.6952    3.1896   -0.2839 H   0  0  0  0  0  0  0  0  0  0  0  0
    0.9738    3.5704   -0.1810 H   0  0  0  0  0  0  0  0  0  0  0  0
    0.2105   -2.6181   -1.7471 H   0  0  0  0  0  0  0  0  0  0  0  0
    0.1298   -0.8240   -1.8379 H   0  0  0  0  0  0  0  0  0  0  0  0
   -1.0245   -0.3331    3.5627 H   0  0  0  0  0  0  0  0  0  0  0  0
   -2.7297   -0.1520    3.0526 H   0  0  0  0  0  0  0  0  0  0  0  0
   -2.6744   -2.3666    1.9676 H   0  0  0  0  0  0  0  0  0  0  0  0
   -0.9508   -2.5382    2.3363 H   0  0  0  0  0  0  0  0  0  0  0  0
   -2.1418   -2.5267    3.6473 H   0  0  0  0  0  0  0  0  0  0  0  0
   -5.4276    0.5983    0.3400 H   0  0  0  0  0  0  0  0  0  0  0  0
   -4.2823    1.5616   -0.6415 H   0  0  0  0  0  0  0  0  0  0  0  0
   -5.6037   -0.0811   -2.0252 H   0  0  0  0  0  0  0  0  0  0  0  0
   -3.8577   -0.3431   -2.1174 H   0  0  0  0  0  0  0  0  0  0  0  0
   -4.8545   -1.4053   -1.1135 H   0  0  0  0  0  0  0  0  0  0  0  0
  1  2  1  0  0  0  0
  2  3  1  0  0  0  0
  3  4  2  0  0  0  0
  4  5  2  0  0  0  0
  4  6  2  0  0  0  0
  6  7  1  0  0  0  0
  7  8  1  0  0  0  0
  4  9  1  0  0  0  0
  9 10  1  0  0  0  0
 10 11  1  0  0  0  0
 11 12  1  0  0  0  0
 12 13  2  0  0  0  0
 12 14  2  0  0  0  0
 14 15  1  0  0  0  0
 15 16  1  0  0  0  0
 12 17  2  0  0  0  0
 17 18  1  0  0  0  0
 18 19  1  0  0  0  0
  1 20  1  0  0  0  0
  1 21  1  0  0  0  0
  1 22  1  0  0  0  0
  2 23  1  0  0  0  0
  2 24  1  0  0  0  0
  7 25  1  0  0  0  0
  7 26  1  0  0  0  0
  8 27  1  0  0  0  0
  8 28  1  0  0  0  0
  8 29  1  0  0  0  0
 10 30  1  0  0  0  0
 10 31  1  0  0  0  0
 15 32  1  0  0  0  0
 15 33  1  0  0  0  0
 16 34  1  0  0  0  0
 16 35  1  0  0  0  0
 16 36  1  0  0  0  0
 18 37  1  0  0  0  0
 18 38  1  0  0  0  0
 19 39  1  0  0  0  0
 19 40  1  0  0  0  0
 19 41  1  0  0  0  0
M  END
