 xtb: 6.7.1 (edcfbbe)
          04032520133D

 16 16  0     0  0            999 V2000
   -2.9253   -0.0005   -0.0004 C   0  0  0  0  0  0  0  0  0  0  0  0
   -1.4261   -0.0090   -0.0003 C   0  0  0  0  0  0  0  0  0  0  0  0
   -0.7090   -1.1960    0.0004 C   0  0  0  0  0  0  0  0  0  0  0  0
    0.6752   -1.1978    0.0004 C   0  0  0  0  0  0  0  0  0  0  0  0
    1.3719    0.0029    0.0007 C   0  0  0  0  0  0  0  0  0  0  0  0
    0.6634    1.2013    0.0007 C   0  0  0  0  0  0  0  0  0  0  0  0
   -0.7162    1.1879   -0.0000 C   0  0  0  0  0  0  0  0  0  0  0  0
    2.7347    0.0607   -0.0007 O   0  0  0  0  0  0  0  0  0  0  0  0
   -3.3010    0.5298   -0.8738 H   0  0  0  0  0  0  0  0  0  0  0  0
   -3.3181   -1.0135   -0.0121 H   0  0  0  0  0  0  0  0  0  0  0  0
   -3.3007    0.5091    0.8856 H   0  0  0  0  0  0  0  0  0  0  0  0
   -1.2355   -2.1394    0.0004 H   0  0  0  0  0  0  0  0  0  0  0  0
    1.2118   -2.1358   -0.0021 H   0  0  0  0  0  0  0  0  0  0  0  0
    1.2149    2.1286    0.0004 H   0  0  0  0  0  0  0  0  0  0  0  0
   -1.2545    2.1243   -0.0012 H   0  0  0  0  0  0  0  0  0  0  0  0
    3.1105   -0.8324   -0.0019 H   0  0  0  0  0  0  0  0  0  0  0  0
  1  2  1  0  0  0  0
  2  3  4  0  0  0  0
  3  4  4  0  0  0  0
  4  5  4  0  0  0  0
  5  6  4  0  0  0  0
  2  7  4  0  0  0  0
  6  7  4  0  0  0  0
  5  8  1  0  0  0  0
  1  9  1  0  0  0  0
  1 10  1  0  0  0  0
  1 11  1  0  0  0  0
  3 12  1  0  0  0  0
  4 13  1  0  0  0  0
  6 14  1  0  0  0  0
  7 15  1  0  0  0  0
  8 16  1  0  0  0  0
M  END
