 xtb: 6.7.1 (edcfbbe)
          04092505213D

 41 40  0     0  0            999 V2000
    5.4417   -0.8168   -0.9337 C   0  0  0  0  0  0  0  0  0  0  0  0
    4.8115   -0.3910    0.3781 C   0  0  0  0  0  0  0  0  0  0  0  0
    3.4429   -0.8359    0.4778 O   0  0  0  0  0  0  0  0  0  0  0  0
    2.2132   -0.0211   -0.1140 P   0  0  0  0  0  0  0  0  0  0  0  0
    2.1053    0.1765   -2.0652 S   0  0  0  0  0  0  0  0  0  0  0  0
    2.2997    1.3430    0.7026 O   0  0  0  0  0  0  0  0  0  0  0  0
    2.0855    2.6523    0.1508 C   0  0  0  0  0  0  0  0  0  0  0  0
    3.4133    3.3046   -0.1788 C   0  0  0  0  0  0  0  0  0  0  0  0
    0.7517   -1.1984    0.8346 S   0  0  0  0  0  0  0  0  0  0  0  0
   -0.2195   -1.7319   -0.6259 C   0  0  0  0  0  0  0  0  0  0  0  0
   -1.9820   -1.8263   -0.2796 S   0  0  0  0  0  0  0  0  0  0  0  0
   -2.4027    0.2455    0.0390 P   0  0  0  0  0  0  0  0  0  0  0  0
   -1.0163    1.5123   -0.5092 S   0  0  0  0  0  0  0  0  0  0  0  0
   -2.8669    0.3703    1.5582 O   0  0  0  0  0  0  0  0  0  0  0  0
   -1.9759    0.3711    2.6877 C   0  0  0  0  0  0  0  0  0  0  0  0
   -1.8768   -1.0095    3.3071 C   0  0  0  0  0  0  0  0  0  0  0  0
   -3.7566    0.5062   -0.7098 O   0  0  0  0  0  0  0  0  0  0  0  0
   -4.9402   -0.3218   -0.5319 C   0  0  0  0  0  0  0  0  0  0  0  0
   -5.1947   -1.1376   -1.7829 C   0  0  0  0  0  0  0  0  0  0  0  0
    5.3796   -1.8959   -1.0444 H   0  0  0  0  0  0  0  0  0  0  0  0
    4.9259   -0.3539   -1.7726 H   0  0  0  0  0  0  0  0  0  0  0  0
    6.4836   -0.5130   -0.9460 H   0  0  0  0  0  0  0  0  0  0  0  0
    4.8434    0.6950    0.4993 H   0  0  0  0  0  0  0  0  0  0  0  0
    5.3045   -0.8679    1.2274 H   0  0  0  0  0  0  0  0  0  0  0  0
    1.4575    2.5728   -0.7414 H   0  0  0  0  0  0  0  0  0  0  0  0
    1.5412    3.2014    0.9203 H   0  0  0  0  0  0  0  0  0  0  0  0
    3.9179    2.7434   -0.9636 H   0  0  0  0  0  0  0  0  0  0  0  0
    3.2334    4.3152   -0.5306 H   0  0  0  0  0  0  0  0  0  0  0  0
    4.0458    3.3384    0.7045 H   0  0  0  0  0  0  0  0  0  0  0  0
    0.0839   -2.7390   -0.9009 H   0  0  0  0  0  0  0  0  0  0  0  0
   -0.0307   -1.0262   -1.4389 H   0  0  0  0  0  0  0  0  0  0  0  0
   -0.9937    0.7372    2.3712 H   0  0  0  0  0  0  0  0  0  0  0  0
   -2.4203    1.0858    3.3832 H   0  0  0  0  0  0  0  0  0  0  0  0
   -2.8698   -1.3855    3.5356 H   0  0  0  0  0  0  0  0  0  0  0  0
   -1.3795   -1.7006    2.6301 H   0  0  0  0  0  0  0  0  0  0  0  0
   -1.2976   -0.9437    4.2222 H   0  0  0  0  0  0  0  0  0  0  0  0
   -4.8022   -0.9618    0.3410 H   0  0  0  0  0  0  0  0  0  0  0  0
   -5.7485    0.3871   -0.3466 H   0  0  0  0  0  0  0  0  0  0  0  0
   -4.3927   -1.8545   -1.9392 H   0  0  0  0  0  0  0  0  0  0  0  0
   -6.1326   -1.6721   -1.6711 H   0  0  0  0  0  0  0  0  0  0  0  0
   -5.2560   -0.4824   -2.6473 H   0  0  0  0  0  0  0  0  0  0  0  0
  1  2  1  0  0  0  0
  2  3  1  0  0  0  0
  3  4  2  0  0  0  0
  4  5  2  0  0  0  0
  4  6  2  0  0  0  0
  6  7  1  0  0  0  0
  7  8  1  0  0  0  0
  4  9  1  0  0  0  0
  9 10  1  0  0  0  0
 10 11  1  0  0  0  0
 11 12  1  0  0  0  0
 12 13  2  0  0  0  0
 12 14  2  0  0  0  0
 14 15  1  0  0  0  0
 15 16  1  0  0  0  0
 12 17  2  0  0  0  0
 17 18  1  0  0  0  0
 18 19  1  0  0  0  0
  1 20  1  0  0  0  0
  1 21  1  0  0  0  0
  1 22  1  0  0  0  0
  2 23  1  0  0  0  0
  2 24  1  0  0  0  0
  7 25  1  0  0  0  0
  7 26  1  0  0  0  0
  8 27  1  0  0  0  0
  8 28  1  0  0  0  0
  8 29  1  0  0  0  0
 10 30  1  0  0  0  0
 10 31  1  0  0  0  0
 15 32  1  0  0  0  0
 15 33  1  0  0  0  0
 16 34  1  0  0  0  0
 16 35  1  0  0  0  0
 16 36  1  0  0  0  0
 18 37  1  0  0  0  0
 18 38  1  0  0  0  0
 19 39  1  0  0  0  0
 19 40  1  0  0  0  0
 19 41  1  0  0  0  0
M  END
