 xtb: 6.7.1 (edcfbbe)
          04092505213D

 41 40  0     0  0            999 V2000
    4.3063   -2.0846   -0.4608 C   0  0  0  0  0  0  0  0  0  0  0  0
    4.7324   -0.6349   -0.5684 C   0  0  0  0  0  0  0  0  0  0  0  0
    3.7782    0.2623    0.0269 O   0  0  0  0  0  0  0  0  0  0  0  0
    2.3249    0.4828   -0.5817 P   0  0  0  0  0  0  0  0  0  0  0  0
    2.2467    0.5035   -2.5377 S   0  0  0  0  0  0  0  0  0  0  0  0
    1.9037    1.8643    0.0517 O   0  0  0  0  0  0  0  0  0  0  0  0
    2.3841    2.3956    1.3115 C   0  0  0  0  0  0  0  0  0  0  0  0
    2.1104    1.4779    2.4831 C   0  0  0  0  0  0  0  0  0  0  0  0
    1.0982   -0.9953    0.3583 S   0  0  0  0  0  0  0  0  0  0  0  0
    0.1289   -1.5246   -1.0687 C   0  0  0  0  0  0  0  0  0  0  0  0
   -1.1236   -0.3184   -1.6224 S   0  0  0  0  0  0  0  0  0  0  0  0
   -2.0899    0.0971    0.2180 P   0  0  0  0  0  0  0  0  0  0  0  0
   -1.4163    1.5021    1.3908 S   0  0  0  0  0  0  0  0  0  0  0  0
   -2.1472   -1.3765    0.8293 O   0  0  0  0  0  0  0  0  0  0  0  0
   -2.1324   -1.6115    2.2521 C   0  0  0  0  0  0  0  0  0  0  0  0
   -3.4860   -1.3175    2.8648 C   0  0  0  0  0  0  0  0  0  0  0  0
   -3.5563    0.4775   -0.2516 O   0  0  0  0  0  0  0  0  0  0  0  0
   -4.3945   -0.4225   -1.0197 C   0  0  0  0  0  0  0  0  0  0  0  0
   -5.8267   -0.2411   -0.5596 C   0  0  0  0  0  0  0  0  0  0  0  0
    3.4346   -2.2631   -1.0883 H   0  0  0  0  0  0  0  0  0  0  0  0
    5.1178   -2.7205   -0.7997 H   0  0  0  0  0  0  0  0  0  0  0  0
    4.0575   -2.3331    0.5677 H   0  0  0  0  0  0  0  0  0  0  0  0
    4.8652   -0.3500   -1.6166 H   0  0  0  0  0  0  0  0  0  0  0  0
    5.6499   -0.4419   -0.0108 H   0  0  0  0  0  0  0  0  0  0  0  0
    3.4534    2.5896    1.2050 H   0  0  0  0  0  0  0  0  0  0  0  0
    1.8376    3.3350    1.4076 H   0  0  0  0  0  0  0  0  0  0  0  0
    2.6184    0.5251    2.3456 H   0  0  0  0  0  0  0  0  0  0  0  0
    2.4749    1.9486    3.3906 H   0  0  0  0  0  0  0  0  0  0  0  0
    1.0416    1.3030    2.5795 H   0  0  0  0  0  0  0  0  0  0  0  0
   -0.3629   -2.4506   -0.7844 H   0  0  0  0  0  0  0  0  0  0  0  0
    0.7802   -1.6621   -1.9322 H   0  0  0  0  0  0  0  0  0  0  0  0
   -1.8581   -2.6627    2.3465 H   0  0  0  0  0  0  0  0  0  0  0  0
   -1.3581   -0.9831    2.7019 H   0  0  0  0  0  0  0  0  0  0  0  0
   -3.7318   -0.2658    2.7187 H   0  0  0  0  0  0  0  0  0  0  0  0
   -4.2544   -1.9306    2.4008 H   0  0  0  0  0  0  0  0  0  0  0  0
   -3.4533   -1.5269    3.9292 H   0  0  0  0  0  0  0  0  0  0  0  0
   -4.2747   -0.1559   -2.0722 H   0  0  0  0  0  0  0  0  0  0  0  0
   -4.0506   -1.4480   -0.8641 H   0  0  0  0  0  0  0  0  0  0  0  0
   -5.9246   -0.5106    0.4885 H   0  0  0  0  0  0  0  0  0  0  0  0
   -6.1257    0.7962   -0.6812 H   0  0  0  0  0  0  0  0  0  0  0  0
   -6.4748   -0.8747   -1.1566 H   0  0  0  0  0  0  0  0  0  0  0  0
  1  2  1  0  0  0  0
  2  3  1  0  0  0  0
  3  4  2  0  0  0  0
  4  5  2  0  0  0  0
  4  6  2  0  0  0  0
  6  7  1  0  0  0  0
  7  8  1  0  0  0  0
  4  9  1  0  0  0  0
  9 10  1  0  0  0  0
 10 11  1  0  0  0  0
 11 12  1  0  0  0  0
 12 13  2  0  0  0  0
 12 14  2  0  0  0  0
 14 15  1  0  0  0  0
 15 16  1  0  0  0  0
 12 17  2  0  0  0  0
 17 18  1  0  0  0  0
 18 19  1  0  0  0  0
  1 20  1  0  0  0  0
  1 21  1  0  0  0  0
  1 22  1  0  0  0  0
  2 23  1  0  0  0  0
  2 24  1  0  0  0  0
  7 25  1  0  0  0  0
  7 26  1  0  0  0  0
  8 27  1  0  0  0  0
  8 28  1  0  0  0  0
  8 29  1  0  0  0  0
 10 30  1  0  0  0  0
 10 31  1  0  0  0  0
 15 32  1  0  0  0  0
 15 33  1  0  0  0  0
 16 34  1  0  0  0  0
 16 35  1  0  0  0  0
 16 36  1  0  0  0  0
 18 37  1  0  0  0  0
 18 38  1  0  0  0  0
 19 39  1  0  0  0  0
 19 40  1  0  0  0  0
 19 41  1  0  0  0  0
M  END
