 xtb: 6.7.1 (edcfbbe)
          04092507313D

 38 37  0     0  0            999 V2000
    4.9767    0.3128   -0.8485 C   0  0  0  0  0  0  0  0  0  0  0  0
    4.5763   -1.1316   -1.1004 C   0  0  0  0  0  0  0  0  0  0  0  0
    3.1452   -1.2509   -1.2186 O   0  0  0  0  0  0  0  0  0  0  0  0
    2.4399   -1.5350   -0.1410 C   0  0  0  0  0  0  0  0  0  0  0  0
    2.9058   -1.7447    0.9551 O   0  0  0  0  0  0  0  0  0  0  0  0
    0.9556   -1.6048   -0.4616 C   0  0  0  0  0  0  0  0  0  0  0  0
    0.4731   -0.2808   -1.0584 C   0  0  0  0  0  0  0  0  0  0  0  0
    1.0741   -0.0343   -1.9375 H   0  0  0  0  0  0  0  0  0  0  0  0
    0.5728    0.8390   -0.0441 C   0  0  0  0  0  0  0  0  0  0  0  0
   -0.4004    1.4548    0.3478 O   0  0  0  0  0  0  0  0  0  0  0  0
    1.7961    1.0324    0.3573 O   0  0  0  0  0  0  0  0  0  0  0  0
    2.0427    2.0334    1.3712 C   0  0  0  0  0  0  0  0  0  0  0  0
    2.3453    3.3784    0.7337 C   0  0  0  0  0  0  0  0  0  0  0  0
   -1.2480   -0.3672   -1.6527 S   0  0  0  0  0  0  0  0  0  0  0  0
   -2.3874   -0.0516    0.1113 P   0  0  0  0  0  0  0  0  0  0  0  0
   -1.7558   -0.7108    1.8596 S   0  0  0  0  0  0  0  0  0  0  0  0
   -3.0996    1.3640    0.0424 O   0  0  0  0  0  0  0  0  0  0  0  0
   -2.9163    2.4374    0.9664 C   0  0  0  0  0  0  0  0  0  0  0  0
   -3.7073   -0.8393   -0.3523 O   0  0  0  0  0  0  0  0  0  0  0  0
   -3.7238   -2.2636   -0.4668 C   0  0  0  0  0  0  0  0  0  0  0  0
    6.0588    0.3841   -0.8123 H   0  0  0  0  0  0  0  0  0  0  0  0
    4.6013    0.9496   -1.6446 H   0  0  0  0  0  0  0  0  0  0  0  0
    4.5658    0.6503    0.0992 H   0  0  0  0  0  0  0  0  0  0  0  0
    4.9141   -1.7772   -0.2851 H   0  0  0  0  0  0  0  0  0  0  0  0
    4.9628   -1.4906   -2.0547 H   0  0  0  0  0  0  0  0  0  0  0  0
    0.4124   -1.8419    0.4554 H   0  0  0  0  0  0  0  0  0  0  0  0
    0.7953   -2.3953   -1.1958 H   0  0  0  0  0  0  0  0  0  0  0  0
    1.1670    2.0895    2.0231 H   0  0  0  0  0  0  0  0  0  0  0  0
    2.8969    1.6484    1.9294 H   0  0  0  0  0  0  0  0  0  0  0  0
    3.1949    3.2941    0.0620 H   0  0  0  0  0  0  0  0  0  0  0  0
    1.4828    3.7326    0.1742 H   0  0  0  0  0  0  0  0  0  0  0  0
    2.5768    4.0955    1.5142 H   0  0  0  0  0  0  0  0  0  0  0  0
   -2.2435    3.1734    0.5304 H   0  0  0  0  0  0  0  0  0  0  0  0
   -2.4995    2.0678    1.9048 H   0  0  0  0  0  0  0  0  0  0  0  0
   -3.9034    2.8637    1.1329 H   0  0  0  0  0  0  0  0  0  0  0  0
   -3.2886   -2.7173    0.4263 H   0  0  0  0  0  0  0  0  0  0  0  0
   -3.1703   -2.5769   -1.3524 H   0  0  0  0  0  0  0  0  0  0  0  0
   -4.7719   -2.5378   -0.5559 H   0  0  0  0  0  0  0  0  0  0  0  0
  1  2  1  0  0  0  0
  2  3  1  0  0  0  0
  3  4  1  0  0  0  0
  4  5  2  0  0  0  0
  4  6  1  0  0  0  0
  6  7  1  0  0  0  0
  7  8  1  0  0  0  0
  7  9  1  0  0  0  0
  9 10  2  0  0  0  0
  9 11  4  0  0  0  0
 11 12  1  0  0  0  0
 12 13  1  0  0  0  0
  7 14  1  0  0  0  0
 14 15  1  0  0  0  0
 15 16  2  0  0  0  0
 15 17  2  0  0  0  0
 17 18  1  0  0  0  0
 15 19  1  0  0  0  0
 19 20  1  0  0  0  0
  1 21  1  0  0  0  0
  1 22  1  0  0  0  0
  1 23  1  0  0  0  0
  2 24  1  0  0  0  0
  2 25  1  0  0  0  0
  6 26  1  0  0  0  0
  6 27  1  0  0  0  0
 12 28  1  0  0  0  0
 12 29  1  0  0  0  0
 13 30  1  0  0  0  0
 13 31  1  0  0  0  0
 13 32  1  0  0  0  0
 18 33  1  0  0  0  0
 18 34  1  0  0  0  0
 18 35  1  0  0  0  0
 20 36  1  0  0  0  0
 20 37  1  0  0  0  0
 20 38  1  0  0  0  0
M  END
