 xtb: 6.7.1 (edcfbbe)
          04092505213D

 41 40  0     0  0            999 V2000
    1.7881    3.0424   -0.8507 C   0  0  0  0  0  0  0  0  0  0  0  0
    1.6302    1.5929   -1.2577 C   0  0  0  0  0  0  0  0  0  0  0  0
    1.1466    0.8175   -0.1344 O   0  0  0  0  0  0  0  0  0  0  0  0
    2.1556   -0.1544    0.6204 P   0  0  0  0  0  0  0  0  0  0  0  0
    3.9930    0.4812    0.8438 S   0  0  0  0  0  0  0  0  0  0  0  0
    2.0343   -1.4735   -0.2677 O   0  0  0  0  0  0  0  0  0  0  0  0
    2.9603   -2.5714   -0.1719 C   0  0  0  0  0  0  0  0  0  0  0  0
    3.0373   -3.2374   -1.5311 C   0  0  0  0  0  0  0  0  0  0  0  0
    1.1027   -0.5561    2.3849 S   0  0  0  0  0  0  0  0  0  0  0  0
   -0.4860   -1.1331    1.6949 C   0  0  0  0  0  0  0  0  0  0  0  0
   -1.6731    0.2056    1.4438 S   0  0  0  0  0  0  0  0  0  0  0  0
   -1.8408    0.2063   -0.6864 P   0  0  0  0  0  0  0  0  0  0  0  0
   -0.8987   -1.2286   -1.6316 S   0  0  0  0  0  0  0  0  0  0  0  0
   -1.4384    1.6499   -1.1859 O   0  0  0  0  0  0  0  0  0  0  0  0
   -2.2765    2.8265   -1.0925 C   0  0  0  0  0  0  0  0  0  0  0  0
   -2.5838    3.2100    0.3394 C   0  0  0  0  0  0  0  0  0  0  0  0
   -3.4147    0.2312   -0.9500 O   0  0  0  0  0  0  0  0  0  0  0  0
   -4.2052   -0.9630   -1.0598 C   0  0  0  0  0  0  0  0  0  0  0  0
   -4.2461   -1.7572    0.2300 C   0  0  0  0  0  0  0  0  0  0  0  0
    2.5521    3.1288   -0.0804 H   0  0  0  0  0  0  0  0  0  0  0  0
    2.0863    3.6258   -1.7158 H   0  0  0  0  0  0  0  0  0  0  0  0
    0.8484    3.4234   -0.4610 H   0  0  0  0  0  0  0  0  0  0  0  0
    2.5822    1.1737   -1.5961 H   0  0  0  0  0  0  0  0  0  0  0  0
    0.8807    1.4663   -2.0405 H   0  0  0  0  0  0  0  0  0  0  0  0
    3.9349   -2.1823    0.1428 H   0  0  0  0  0  0  0  0  0  0  0  0
    2.5849   -3.2615    0.5882 H   0  0  0  0  0  0  0  0  0  0  0  0
    3.4578   -2.5526   -2.2623 H   0  0  0  0  0  0  0  0  0  0  0  0
    3.6649   -4.1196   -1.4617 H   0  0  0  0  0  0  0  0  0  0  0  0
    2.0402   -3.5234   -1.8560 H   0  0  0  0  0  0  0  0  0  0  0  0
   -0.8950   -1.8106    2.4393 H   0  0  0  0  0  0  0  0  0  0  0  0
   -0.3083   -1.6346    0.7393 H   0  0  0  0  0  0  0  0  0  0  0  0
   -1.6864    3.5934   -1.5974 H   0  0  0  0  0  0  0  0  0  0  0  0
   -3.1955    2.6386   -1.6507 H   0  0  0  0  0  0  0  0  0  0  0  0
   -1.6661    3.3215    0.9122 H   0  0  0  0  0  0  0  0  0  0  0  0
   -3.1244    4.1515    0.3463 H   0  0  0  0  0  0  0  0  0  0  0  0
   -3.1973    2.4453    0.8129 H   0  0  0  0  0  0  0  0  0  0  0  0
   -5.1943   -0.5937   -1.3349 H   0  0  0  0  0  0  0  0  0  0  0  0
   -3.7968   -1.5726   -1.8718 H   0  0  0  0  0  0  0  0  0  0  0  0
   -3.2653   -2.1838    0.4346 H   0  0  0  0  0  0  0  0  0  0  0  0
   -4.5355   -1.1194    1.0612 H   0  0  0  0  0  0  0  0  0  0  0  0
   -4.9640   -2.5647    0.1280 H   0  0  0  0  0  0  0  0  0  0  0  0
  1  2  1  0  0  0  0
  2  3  1  0  0  0  0
  3  4  1  0  0  0  0
  4  5  2  0  0  0  0
  4  6  2  0  0  0  0
  6  7  1  0  0  0  0
  7  8  1  0  0  0  0
  4  9  1  0  0  0  0
  9 10  1  0  0  0  0
 10 11  1  0  0  0  0
 11 12  1  0  0  0  0
 12 13  2  0  0  0  0
 12 14  2  0  0  0  0
 14 15  1  0  0  0  0
 15 16  1  0  0  0  0
 12 17  2  0  0  0  0
 17 18  1  0  0  0  0
 18 19  1  0  0  0  0
  1 20  1  0  0  0  0
  1 21  1  0  0  0  0
  1 22  1  0  0  0  0
  2 23  1  0  0  0  0
  2 24  1  0  0  0  0
  7 25  1  0  0  0  0
  7 26  1  0  0  0  0
  8 27  1  0  0  0  0
  8 28  1  0  0  0  0
  8 29  1  0  0  0  0
 10 30  1  0  0  0  0
 10 31  1  0  0  0  0
 15 32  1  0  0  0  0
 15 33  1  0  0  0  0
 16 34  1  0  0  0  0
 16 35  1  0  0  0  0
 16 36  1  0  0  0  0
 18 37  1  0  0  0  0
 18 38  1  0  0  0  0
 19 39  1  0  0  0  0
 19 40  1  0  0  0  0
 19 41  1  0  0  0  0
M  END
