 xtb: 6.7.1 (edcfbbe)
          04092505213D

 41 40  0     0  0            999 V2000
    5.6273   -0.3679   -0.9130 C   0  0  0  0  0  0  0  0  0  0  0  0
    4.4722   -1.2469   -1.3438 C   0  0  0  0  0  0  0  0  0  0  0  0
    3.3745   -1.1901   -0.4095 O   0  0  0  0  0  0  0  0  0  0  0  0
    2.4838    0.1082   -0.2227 P   0  0  0  0  0  0  0  0  0  0  0  0
    2.1283    1.1075   -1.8792 S   0  0  0  0  0  0  0  0  0  0  0  0
    3.2640    0.9078    0.9057 O   0  0  0  0  0  0  0  0  0  0  0  0
    3.0227    2.2989    1.1769 C   0  0  0  0  0  0  0  0  0  0  0  0
    1.6692    2.5218    1.8186 C   0  0  0  0  0  0  0  0  0  0  0  0
    0.8667   -0.7950    0.7689 S   0  0  0  0  0  0  0  0  0  0  0  0
    0.0009   -1.3211   -0.7569 C   0  0  0  0  0  0  0  0  0  0  0  0
   -1.6782   -1.8524   -0.4107 S   0  0  0  0  0  0  0  0  0  0  0  0
   -2.5670    0.0510    0.0266 P   0  0  0  0  0  0  0  0  0  0  0  0
   -1.4866    1.6264   -0.3927 S   0  0  0  0  0  0  0  0  0  0  0  0
   -3.0967   -0.1297    1.5179 O   0  0  0  0  0  0  0  0  0  0  0  0
   -2.2636   -0.3851    2.6629 C   0  0  0  0  0  0  0  0  0  0  0  0
   -1.7263    0.9029    3.2532 C   0  0  0  0  0  0  0  0  0  0  0  0
   -3.9223    0.1003   -0.7654 O   0  0  0  0  0  0  0  0  0  0  0  0
   -4.9574   -0.9159   -0.6868 C   0  0  0  0  0  0  0  0  0  0  0  0
   -4.9494   -1.7727   -1.9370 C   0  0  0  0  0  0  0  0  0  0  0  0
    5.9181   -0.6038    0.1073 H   0  0  0  0  0  0  0  0  0  0  0  0
    6.4701   -0.5297   -1.5776 H   0  0  0  0  0  0  0  0  0  0  0  0
    5.3337    0.6798   -0.9626 H   0  0  0  0  0  0  0  0  0  0  0  0
    4.7481   -2.3021   -1.3563 H   0  0  0  0  0  0  0  0  0  0  0  0
    4.1026   -0.9432   -2.3287 H   0  0  0  0  0  0  0  0  0  0  0  0
    3.8378    2.5807    1.8449 H   0  0  0  0  0  0  0  0  0  0  0  0
    3.0980    2.8559    0.2372 H   0  0  0  0  0  0  0  0  0  0  0  0
    1.5556    1.8794    2.6883 H   0  0  0  0  0  0  0  0  0  0  0  0
    1.5775    3.5600    2.1208 H   0  0  0  0  0  0  0  0  0  0  0  0
    0.8762    2.2985    1.1037 H   0  0  0  0  0  0  0  0  0  0  0  0
    0.5151   -2.1781   -1.1862 H   0  0  0  0  0  0  0  0  0  0  0  0
   -0.0143   -0.4741   -1.4475 H   0  0  0  0  0  0  0  0  0  0  0  0
   -2.9250   -0.8979    3.3639 H   0  0  0  0  0  0  0  0  0  0  0  0
   -1.4442   -1.0515    2.3738 H   0  0  0  0  0  0  0  0  0  0  0  0
   -1.0951    1.4116    2.5286 H   0  0  0  0  0  0  0  0  0  0  0  0
   -2.5457    1.5632    3.5231 H   0  0  0  0  0  0  0  0  0  0  0  0
   -1.1396    0.6739    4.1366 H   0  0  0  0  0  0  0  0  0  0  0  0
   -4.8034   -1.5162    0.2110 H   0  0  0  0  0  0  0  0  0  0  0  0
   -5.8868   -0.3511   -0.5987 H   0  0  0  0  0  0  0  0  0  0  0  0
   -5.0326   -1.1433   -2.8187 H   0  0  0  0  0  0  0  0  0  0  0  0
   -4.0292   -2.3482   -1.9996 H   0  0  0  0  0  0  0  0  0  0  0  0
   -5.7932   -2.4544   -1.9031 H   0  0  0  0  0  0  0  0  0  0  0  0
  1  2  1  0  0  0  0
  2  3  1  0  0  0  0
  3  4  2  0  0  0  0
  4  5  2  0  0  0  0
  4  6  2  0  0  0  0
  6  7  1  0  0  0  0
  7  8  1  0  0  0  0
  4  9  1  0  0  0  0
  9 10  1  0  0  0  0
 10 11  1  0  0  0  0
 11 12  1  0  0  0  0
 12 13  2  0  0  0  0
 12 14  2  0  0  0  0
 14 15  1  0  0  0  0
 15 16  1  0  0  0  0
 12 17  2  0  0  0  0
 17 18  1  0  0  0  0
 18 19  1  0  0  0  0
  1 20  1  0  0  0  0
  1 21  1  0  0  0  0
  1 22  1  0  0  0  0
  2 23  1  0  0  0  0
  2 24  1  0  0  0  0
  7 25  1  0  0  0  0
  7 26  1  0  0  0  0
  8 27  1  0  0  0  0
  8 28  1  0  0  0  0
  8 29  1  0  0  0  0
 10 30  1  0  0  0  0
 10 31  1  0  0  0  0
 15 32  1  0  0  0  0
 15 33  1  0  0  0  0
 16 34  1  0  0  0  0
 16 35  1  0  0  0  0
 16 36  1  0  0  0  0
 18 37  1  0  0  0  0
 18 38  1  0  0  0  0
 19 39  1  0  0  0  0
 19 40  1  0  0  0  0
 19 41  1  0  0  0  0
M  END
