 xtb: 6.7.1 (edcfbbe)
          04092505213D

 41 40  0     0  0            999 V2000
    2.6454    0.6317   -3.3475 C   0  0  0  0  0  0  0  0  0  0  0  0
    2.7955    0.9417   -1.8734 C   0  0  0  0  0  0  0  0  0  0  0  0
    2.4524   -0.2496   -1.1350 O   0  0  0  0  0  0  0  0  0  0  0  0
    2.1657   -0.2454    0.4218 P   0  0  0  0  0  0  0  0  0  0  0  0
    1.1460    1.3187    1.0472 S   0  0  0  0  0  0  0  0  0  0  0  0
    3.6391   -0.3544    1.0092 O   0  0  0  0  0  0  0  0  0  0  0  0
    3.9970   -0.8523    2.3134 C   0  0  0  0  0  0  0  0  0  0  0  0
    3.1222   -0.3065    3.4221 C   0  0  0  0  0  0  0  0  0  0  0  0
    1.3977   -2.1834    0.6718 S   0  0  0  0  0  0  0  0  0  0  0  0
   -0.2004   -2.0136   -0.1665 C   0  0  0  0  0  0  0  0  0  0  0  0
   -1.4599   -1.1428    0.8137 S   0  0  0  0  0  0  0  0  0  0  0  0
   -1.9189    0.4722   -0.5092 P   0  0  0  0  0  0  0  0  0  0  0  0
   -0.8503    0.5931   -2.1404 S   0  0  0  0  0  0  0  0  0  0  0  0
   -1.8463    1.8133    0.3018 O   0  0  0  0  0  0  0  0  0  0  0  0
   -2.4411    1.9998    1.6093 C   0  0  0  0  0  0  0  0  0  0  0  0
   -3.7297    2.7872    1.4965 C   0  0  0  0  0  0  0  0  0  0  0  0
   -3.4974    0.3232   -0.6942 O   0  0  0  0  0  0  0  0  0  0  0  0
   -4.1898   -0.8787   -1.0735 C   0  0  0  0  0  0  0  0  0  0  0  0
   -3.7674   -1.3981   -2.4325 C   0  0  0  0  0  0  0  0  0  0  0  0
    3.2574   -0.2264   -3.6087 H   0  0  0  0  0  0  0  0  0  0  0  0
    1.6048    0.4115   -3.5743 H   0  0  0  0  0  0  0  0  0  0  0  0
    2.9609    1.4942   -3.9250 H   0  0  0  0  0  0  0  0  0  0  0  0
    2.1242    1.7506   -1.5644 H   0  0  0  0  0  0  0  0  0  0  0  0
    3.8233    1.2113   -1.6184 H   0  0  0  0  0  0  0  0  0  0  0  0
    3.9408   -1.9437    2.2779 H   0  0  0  0  0  0  0  0  0  0  0  0
    5.0355   -0.5379    2.4326 H   0  0  0  0  0  0  0  0  0  0  0  0
    3.4865   -0.6682    4.3782 H   0  0  0  0  0  0  0  0  0  0  0  0
    3.1362    0.7812    3.4180 H   0  0  0  0  0  0  0  0  0  0  0  0
    2.0931   -0.6381    3.2856 H   0  0  0  0  0  0  0  0  0  0  0  0
   -0.5488   -3.0310   -0.3245 H   0  0  0  0  0  0  0  0  0  0  0  0
   -0.0624   -1.4814   -1.1127 H   0  0  0  0  0  0  0  0  0  0  0  0
   -2.6094    1.0211    2.0680 H   0  0  0  0  0  0  0  0  0  0  0  0
   -1.6815    2.5398    2.1787 H   0  0  0  0  0  0  0  0  0  0  0  0
   -4.4567    2.2361    0.9057 H   0  0  0  0  0  0  0  0  0  0  0  0
   -4.1277    2.9587    2.4916 H   0  0  0  0  0  0  0  0  0  0  0  0
   -3.5390    3.7425    1.0152 H   0  0  0  0  0  0  0  0  0  0  0  0
   -4.0197   -1.6318   -0.2985 H   0  0  0  0  0  0  0  0  0  0  0  0
   -5.2395   -0.5794   -1.0736 H   0  0  0  0  0  0  0  0  0  0  0  0
   -2.7241   -1.7088   -2.4134 H   0  0  0  0  0  0  0  0  0  0  0  0
   -4.3866   -2.2481   -2.7003 H   0  0  0  0  0  0  0  0  0  0  0  0
   -3.8768   -0.6208   -3.1850 H   0  0  0  0  0  0  0  0  0  0  0  0
  1  2  1  0  0  0  0
  2  3  1  0  0  0  0
  3  4  2  0  0  0  0
  4  5  2  0  0  0  0
  4  6  2  0  0  0  0
  6  7  1  0  0  0  0
  7  8  1  0  0  0  0
  4  9  1  0  0  0  0
  9 10  1  0  0  0  0
 10 11  1  0  0  0  0
 11 12  1  0  0  0  0
 12 13  2  0  0  0  0
 12 14  2  0  0  0  0
 14 15  1  0  0  0  0
 15 16  1  0  0  0  0
 12 17  2  0  0  0  0
 17 18  1  0  0  0  0
 18 19  1  0  0  0  0
  1 20  1  0  0  0  0
  1 21  1  0  0  0  0
  1 22  1  0  0  0  0
  2 23  1  0  0  0  0
  2 24  1  0  0  0  0
  7 25  1  0  0  0  0
  7 26  1  0  0  0  0
  8 27  1  0  0  0  0
  8 28  1  0  0  0  0
  8 29  1  0  0  0  0
 10 30  1  0  0  0  0
 10 31  1  0  0  0  0
 15 32  1  0  0  0  0
 15 33  1  0  0  0  0
 16 34  1  0  0  0  0
 16 35  1  0  0  0  0
 16 36  1  0  0  0  0
 18 37  1  0  0  0  0
 18 38  1  0  0  0  0
 19 39  1  0  0  0  0
 19 40  1  0  0  0  0
 19 41  1  0  0  0  0
M  END
