 xtb: 6.7.1 (edcfbbe)
          04092505213D

 41 40  0     0  0            999 V2000
    3.4083   -2.1982    1.8163 C   0  0  0  0  0  0  0  0  0  0  0  0
    2.0307   -2.0994    1.1936 C   0  0  0  0  0  0  0  0  0  0  0  0
    1.6771   -0.7287    0.9255 O   0  0  0  0  0  0  0  0  0  0  0  0
    2.3543    0.0981   -0.2656 P   0  0  0  0  0  0  0  0  0  0  0  0
    3.0421   -0.9646   -1.7514 S   0  0  0  0  0  0  0  0  0  0  0  0
    3.4799    1.0019    0.3838 O   0  0  0  0  0  0  0  0  0  0  0  0
    3.2301    1.8658    1.5214 C   0  0  0  0  0  0  0  0  0  0  0  0
    4.5247    2.5825    1.8421 C   0  0  0  0  0  0  0  0  0  0  0  0
    0.7912    1.4682   -0.6948 S   0  0  0  0  0  0  0  0  0  0  0  0
   -0.0595    0.3950   -1.8780 C   0  0  0  0  0  0  0  0  0  0  0  0
   -0.9094   -0.9872   -1.0864 S   0  0  0  0  0  0  0  0  0  0  0  0
   -2.4850    0.1812   -0.2318 P   0  0  0  0  0  0  0  0  0  0  0  0
   -3.1121    1.6595   -1.3454 S   0  0  0  0  0  0  0  0  0  0  0  0
   -1.9991    0.6576    1.1841 O   0  0  0  0  0  0  0  0  0  0  0  0
   -1.5963   -0.2643    2.2317 C   0  0  0  0  0  0  0  0  0  0  0  0
   -0.6123    0.4567    3.1283 C   0  0  0  0  0  0  0  0  0  0  0  0
   -3.5625   -0.9244    0.1408 O   0  0  0  0  0  0  0  0  0  0  0  0
   -4.3456   -1.5839   -0.8769 C   0  0  0  0  0  0  0  0  0  0  0  0
   -5.5097   -2.2697   -0.1915 C   0  0  0  0  0  0  0  0  0  0  0  0
    4.1516   -1.8052    1.1224 H   0  0  0  0  0  0  0  0  0  0  0  0
    3.4513   -1.6290    2.7412 H   0  0  0  0  0  0  0  0  0  0  0  0
    3.6369   -3.2387    2.0240 H   0  0  0  0  0  0  0  0  0  0  0  0
    1.2513   -2.4505    1.8711 H   0  0  0  0  0  0  0  0  0  0  0  0
    1.9879   -2.6607    0.2553 H   0  0  0  0  0  0  0  0  0  0  0  0
    2.4375    2.5694    1.2511 H   0  0  0  0  0  0  0  0  0  0  0  0
    2.8956    1.2476    2.3580 H   0  0  0  0  0  0  0  0  0  0  0  0
    4.3673    3.2387    2.6920 H   0  0  0  0  0  0  0  0  0  0  0  0
    5.3018    1.8620    2.0805 H   0  0  0  0  0  0  0  0  0  0  0  0
    4.8455    3.1711    0.9876 H   0  0  0  0  0  0  0  0  0  0  0  0
    0.6673   -0.0304   -2.5706 H   0  0  0  0  0  0  0  0  0  0  0  0
   -0.7919    1.0166   -2.3948 H   0  0  0  0  0  0  0  0  0  0  0  0
   -2.4982   -0.5582    2.7710 H   0  0  0  0  0  0  0  0  0  0  0  0
   -1.1475   -1.1468    1.7661 H   0  0  0  0  0  0  0  0  0  0  0  0
   -1.0598    1.3696    3.5103 H   0  0  0  0  0  0  0  0  0  0  0  0
   -0.3440   -0.1898    3.9576 H   0  0  0  0  0  0  0  0  0  0  0  0
    0.2813    0.7148    2.5660 H   0  0  0  0  0  0  0  0  0  0  0  0
   -4.6867   -0.8316   -1.5953 H   0  0  0  0  0  0  0  0  0  0  0  0
   -3.7009   -2.3028   -1.3897 H   0  0  0  0  0  0  0  0  0  0  0  0
   -6.1250   -1.5360    0.3215 H   0  0  0  0  0  0  0  0  0  0  0  0
   -6.1094   -2.7816   -0.9368 H   0  0  0  0  0  0  0  0  0  0  0  0
   -5.1422   -2.9910    0.5325 H   0  0  0  0  0  0  0  0  0  0  0  0
  1  2  1  0  0  0  0
  2  3  1  0  0  0  0
  3  4  1  0  0  0  0
  4  5  2  0  0  0  0
  4  6  2  0  0  0  0
  6  7  1  0  0  0  0
  7  8  1  0  0  0  0
  4  9  1  0  0  0  0
  9 10  1  0  0  0  0
 10 11  1  0  0  0  0
 11 12  1  0  0  0  0
 12 13  2  0  0  0  0
 12 14  2  0  0  0  0
 14 15  1  0  0  0  0
 15 16  1  0  0  0  0
 12 17  2  0  0  0  0
 17 18  1  0  0  0  0
 18 19  1  0  0  0  0
  1 20  1  0  0  0  0
  1 21  1  0  0  0  0
  1 22  1  0  0  0  0
  2 23  1  0  0  0  0
  2 24  1  0  0  0  0
  7 25  1  0  0  0  0
  7 26  1  0  0  0  0
  8 27  1  0  0  0  0
  8 28  1  0  0  0  0
  8 29  1  0  0  0  0
 10 30  1  0  0  0  0
 10 31  1  0  0  0  0
 15 32  1  0  0  0  0
 15 33  1  0  0  0  0
 16 34  1  0  0  0  0
 16 35  1  0  0  0  0
 16 36  1  0  0  0  0
 18 37  1  0  0  0  0
 18 38  1  0  0  0  0
 19 39  1  0  0  0  0
 19 40  1  0  0  0  0
 19 41  1  0  0  0  0
M  END
