 xtb: 6.7.1 (edcfbbe)
          04092505213D

 41 40  0     0  0            999 V2000
    2.8995   -2.9808   -1.7417 C   0  0  0  0  0  0  0  0  0  0  0  0
    3.7340   -2.3702   -0.6350 C   0  0  0  0  0  0  0  0  0  0  0  0
    3.6659   -0.9221   -0.6404 O   0  0  0  0  0  0  0  0  0  0  0  0
    2.5021   -0.0399   -0.0595 P   0  0  0  0  0  0  0  0  0  0  0  0
    3.0865    1.8243    0.0745 S   0  0  0  0  0  0  0  0  0  0  0  0
    2.1666   -0.8368    1.2783 O   0  0  0  0  0  0  0  0  0  0  0  0
    1.0987   -0.5718    2.2033 C   0  0  0  0  0  0  0  0  0  0  0  0
    1.3110    0.7076    2.9864 C   0  0  0  0  0  0  0  0  0  0  0  0
    0.8099   -0.3432   -1.3460 S   0  0  0  0  0  0  0  0  0  0  0  0
    0.1426    1.3310   -1.3246 C   0  0  0  0  0  0  0  0  0  0  0  0
   -0.8283    1.6841    0.1609 S   0  0  0  0  0  0  0  0  0  0  0  0
   -2.4609    0.4021   -0.3028 P   0  0  0  0  0  0  0  0  0  0  0  0
   -2.9807    0.3466   -2.1858 S   0  0  0  0  0  0  0  0  0  0  0  0
   -3.6328    0.9152    0.6227 O   0  0  0  0  0  0  0  0  0  0  0  0
   -3.6490    0.8147    2.0705 C   0  0  0  0  0  0  0  0  0  0  0  0
   -3.0642    2.0531    2.7184 C   0  0  0  0  0  0  0  0  0  0  0  0
   -2.0456   -1.0019    0.3407 O   0  0  0  0  0  0  0  0  0  0  0  0
   -1.9620   -2.2449   -0.3930 C   0  0  0  0  0  0  0  0  0  0  0  0
   -0.9526   -3.1401    0.2958 C   0  0  0  0  0  0  0  0  0  0  0  0
    3.1870   -2.5635   -2.7031 H   0  0  0  0  0  0  0  0  0  0  0  0
    3.0611   -4.0541   -1.7551 H   0  0  0  0  0  0  0  0  0  0  0  0
    1.8413   -2.7832   -1.5824 H   0  0  0  0  0  0  0  0  0  0  0  0
    4.7963   -2.5708   -0.7829 H   0  0  0  0  0  0  0  0  0  0  0  0
    3.4223   -2.7306    0.3463 H   0  0  0  0  0  0  0  0  0  0  0  0
    0.1513   -0.5397    1.6579 H   0  0  0  0  0  0  0  0  0  0  0  0
    1.1121   -1.4431    2.8615 H   0  0  0  0  0  0  0  0  0  0  0  0
    0.5484    0.7868    3.7545 H   0  0  0  0  0  0  0  0  0  0  0  0
    2.2926    0.7035    3.4533 H   0  0  0  0  0  0  0  0  0  0  0  0
    1.2429    1.5739    2.3312 H   0  0  0  0  0  0  0  0  0  0  0  0
   -0.4967    1.4290   -2.2019 H   0  0  0  0  0  0  0  0  0  0  0  0
    0.9648    2.0480   -1.3393 H   0  0  0  0  0  0  0  0  0  0  0  0
   -4.7084    0.7076    2.3096 H   0  0  0  0  0  0  0  0  0  0  0  0
   -3.1077   -0.0851    2.3677 H   0  0  0  0  0  0  0  0  0  0  0  0
   -2.0053    2.1473    2.4872 H   0  0  0  0  0  0  0  0  0  0  0  0
   -3.5776    2.9405    2.3586 H   0  0  0  0  0  0  0  0  0  0  0  0
   -3.1884    1.9804    3.7944 H   0  0  0  0  0  0  0  0  0  0  0  0
   -2.9577   -2.6947   -0.3906 H   0  0  0  0  0  0  0  0  0  0  0  0
   -1.6738   -2.0304   -1.4261 H   0  0  0  0  0  0  0  0  0  0  0  0
   -0.9309   -4.0978   -0.2135 H   0  0  0  0  0  0  0  0  0  0  0  0
    0.0375   -2.6948    0.2557 H   0  0  0  0  0  0  0  0  0  0  0  0
   -1.2339   -3.2912    1.3338 H   0  0  0  0  0  0  0  0  0  0  0  0
  1  2  1  0  0  0  0
  2  3  1  0  0  0  0
  3  4  2  0  0  0  0
  4  5  2  0  0  0  0
  4  6  2  0  0  0  0
  6  7  1  0  0  0  0
  7  8  1  0  0  0  0
  4  9  1  0  0  0  0
  9 10  1  0  0  0  0
 10 11  1  0  0  0  0
 11 12  1  0  0  0  0
 12 13  2  0  0  0  0
 12 14  2  0  0  0  0
 14 15  1  0  0  0  0
 15 16  1  0  0  0  0
 12 17  1  0  0  0  0
 17 18  1  0  0  0  0
 18 19  1  0  0  0  0
  1 20  1  0  0  0  0
  1 21  1  0  0  0  0
  1 22  1  0  0  0  0
  2 23  1  0  0  0  0
  2 24  1  0  0  0  0
  7 25  1  0  0  0  0
  7 26  1  0  0  0  0
  8 27  1  0  0  0  0
  8 28  1  0  0  0  0
  8 29  1  0  0  0  0
 10 30  1  0  0  0  0
 10 31  1  0  0  0  0
 15 32  1  0  0  0  0
 15 33  1  0  0  0  0
 16 34  1  0  0  0  0
 16 35  1  0  0  0  0
 16 36  1  0  0  0  0
 18 37  1  0  0  0  0
 18 38  1  0  0  0  0
 19 39  1  0  0  0  0
 19 40  1  0  0  0  0
 19 41  1  0  0  0  0
M  END
