 xtb: 6.7.1 (edcfbbe)
          04092507313D

 38 37  0     0  0            999 V2000
    5.4144   -1.7612   -1.0862 C   0  0  0  0  0  0  0  0  0  0  0  0
    4.5669   -0.4996   -1.0476 C   0  0  0  0  0  0  0  0  0  0  0  0
    3.1643   -0.8161   -1.1372 O   0  0  0  0  0  0  0  0  0  0  0  0
    2.5127   -1.0951   -0.0249 C   0  0  0  0  0  0  0  0  0  0  0  0
    3.0057   -1.1050    1.0792 O   0  0  0  0  0  0  0  0  0  0  0  0
    1.0530   -1.4126   -0.3049 C   0  0  0  0  0  0  0  0  0  0  0  0
    0.3936   -0.2723   -1.0830 C   0  0  0  0  0  0  0  0  0  0  0  0
    0.9217   -0.1167   -2.0277 H   0  0  0  0  0  0  0  0  0  0  0  0
    0.4027    1.0116   -0.2811 C   0  0  0  0  0  0  0  0  0  0  0  0
   -0.6176    1.5830    0.0535 O   0  0  0  0  0  0  0  0  0  0  0  0
    1.6080    1.4090    0.0090 O   0  0  0  0  0  0  0  0  0  0  0  0
    1.7580    2.5608    0.8716 C   0  0  0  0  0  0  0  0  0  0  0  0
    3.1992    2.6061    1.3365 C   0  0  0  0  0  0  0  0  0  0  0  0
   -1.3253   -0.6442   -1.5366 S   0  0  0  0  0  0  0  0  0  0  0  0
   -2.3781   -0.2314    0.2809 P   0  0  0  0  0  0  0  0  0  0  0  0
   -1.5451   -0.3573    2.0527 S   0  0  0  0  0  0  0  0  0  0  0  0
   -3.3700    0.9909    0.0002 O   0  0  0  0  0  0  0  0  0  0  0  0
   -3.2252    2.3545    0.3922 C   0  0  0  0  0  0  0  0  0  0  0  0
   -3.4407   -1.4187    0.2157 O   0  0  0  0  0  0  0  0  0  0  0  0
   -4.3239   -1.6385   -0.8967 C   0  0  0  0  0  0  0  0  0  0  0  0
    6.4645   -1.4884   -1.0841 H   0  0  0  0  0  0  0  0  0  0  0  0
    5.2085   -2.3764   -0.2132 H   0  0  0  0  0  0  0  0  0  0  0  0
    5.1946   -2.3339   -1.9830 H   0  0  0  0  0  0  0  0  0  0  0  0
    4.7584    0.1343   -1.9134 H   0  0  0  0  0  0  0  0  0  0  0  0
    4.7396    0.0541   -0.1210 H   0  0  0  0  0  0  0  0  0  0  0  0
    0.5465   -1.5790    0.6488 H   0  0  0  0  0  0  0  0  0  0  0  0
    1.0004   -2.3220   -0.9053 H   0  0  0  0  0  0  0  0  0  0  0  0
    1.4842    3.4501    0.2971 H   0  0  0  0  0  0  0  0  0  0  0  0
    1.0619    2.4499    1.7085 H   0  0  0  0  0  0  0  0  0  0  0  0
    3.3267    3.4355    2.0238 H   0  0  0  0  0  0  0  0  0  0  0  0
    3.4499    1.6789    1.8462 H   0  0  0  0  0  0  0  0  0  0  0  0
    3.8636    2.7364    0.4876 H   0  0  0  0  0  0  0  0  0  0  0  0
   -2.6947    2.4218    1.3419 H   0  0  0  0  0  0  0  0  0  0  0  0
   -4.2391    2.7363    0.4926 H   0  0  0  0  0  0  0  0  0  0  0  0
   -2.6769    2.9012   -0.3725 H   0  0  0  0  0  0  0  0  0  0  0  0
   -3.7459   -1.7774   -1.8107 H   0  0  0  0  0  0  0  0  0  0  0  0
   -5.0015   -0.7937   -1.0063 H   0  0  0  0  0  0  0  0  0  0  0  0
   -4.8720   -2.5439   -0.6482 H   0  0  0  0  0  0  0  0  0  0  0  0
  1  2  1  0  0  0  0
  2  3  1  0  0  0  0
  3  4  1  0  0  0  0
  4  5  2  0  0  0  0
  4  6  1  0  0  0  0
  6  7  1  0  0  0  0
  7  8  1  0  0  0  0
  7  9  1  0  0  0  0
  9 10  2  0  0  0  0
  9 11  4  0  0  0  0
 11 12  1  0  0  0  0
 12 13  1  0  0  0  0
  7 14  1  0  0  0  0
 14 15  1  0  0  0  0
 15 16  2  0  0  0  0
 15 17  2  0  0  0  0
 17 18  1  0  0  0  0
 15 19  1  0  0  0  0
 19 20  1  0  0  0  0
  1 21  1  0  0  0  0
  1 22  1  0  0  0  0
  1 23  1  0  0  0  0
  2 24  1  0  0  0  0
  2 25  1  0  0  0  0
  6 26  1  0  0  0  0
  6 27  1  0  0  0  0
 12 28  1  0  0  0  0
 12 29  1  0  0  0  0
 13 30  1  0  0  0  0
 13 31  1  0  0  0  0
 13 32  1  0  0  0  0
 18 33  1  0  0  0  0
 18 34  1  0  0  0  0
 18 35  1  0  0  0  0
 20 36  1  0  0  0  0
 20 37  1  0  0  0  0
 20 38  1  0  0  0  0
M  END
