 xtb: 6.7.1 (edcfbbe)
          04092505203D

 41 40  0     0  0            999 V2000
    2.5658   -0.8547   -2.9161 C   0  0  0  0  0  0  0  0  0  0  0  0
    2.7975    0.4758   -2.2286 C   0  0  0  0  0  0  0  0  0  0  0  0
    3.2138    0.2827   -0.8635 O   0  0  0  0  0  0  0  0  0  0  0  0
    2.2834    0.3322    0.4197 P   0  0  0  0  0  0  0  0  0  0  0  0
    1.2876    1.9820    0.7633 S   0  0  0  0  0  0  0  0  0  0  0  0
    3.3447    0.1245    1.5664 O   0  0  0  0  0  0  0  0  0  0  0  0
    4.2508   -1.0090    1.6291 C   0  0  0  0  0  0  0  0  0  0  0  0
    3.8592   -1.9247    2.7717 C   0  0  0  0  0  0  0  0  0  0  0  0
    1.1525   -1.4695    0.3629 S   0  0  0  0  0  0  0  0  0  0  0  0
   -0.1465   -0.9776    1.5424 C   0  0  0  0  0  0  0  0  0  0  0  0
   -1.8158   -1.3242    0.9454 S   0  0  0  0  0  0  0  0  0  0  0  0
   -2.0333    0.2647   -0.4648 P   0  0  0  0  0  0  0  0  0  0  0  0
   -0.7381    0.4203   -1.9200 S   0  0  0  0  0  0  0  0  0  0  0  0
   -2.0323    1.5981    0.3726 O   0  0  0  0  0  0  0  0  0  0  0  0
   -2.9233    1.8707    1.4806 C   0  0  0  0  0  0  0  0  0  0  0  0
   -4.1007    2.7073    1.0237 C   0  0  0  0  0  0  0  0  0  0  0  0
   -3.5583    0.1108   -0.8811 O   0  0  0  0  0  0  0  0  0  0  0  0
   -4.1817   -1.1161   -1.3091 C   0  0  0  0  0  0  0  0  0  0  0  0
   -3.4087   -1.8218   -2.4027 C   0  0  0  0  0  0  0  0  0  0  0  0
    2.3578   -0.6737   -3.9654 H   0  0  0  0  0  0  0  0  0  0  0  0
    3.4461   -1.4842   -2.8227 H   0  0  0  0  0  0  0  0  0  0  0  0
    1.7102   -1.3632   -2.4781 H   0  0  0  0  0  0  0  0  0  0  0  0
    1.8944    1.0918   -2.2528 H   0  0  0  0  0  0  0  0  0  0  0  0
    3.6234    1.0226   -2.6876 H   0  0  0  0  0  0  0  0  0  0  0  0
    4.2360   -1.5345    0.6724 H   0  0  0  0  0  0  0  0  0  0  0  0
    5.2358   -0.5690    1.7904 H   0  0  0  0  0  0  0  0  0  0  0  0
    2.9031   -2.4005    2.5686 H   0  0  0  0  0  0  0  0  0  0  0  0
    4.6185   -2.6919    2.8853 H   0  0  0  0  0  0  0  0  0  0  0  0
    3.7842   -1.3552    3.6938 H   0  0  0  0  0  0  0  0  0  0  0  0
   -0.0389    0.0935    1.7358 H   0  0  0  0  0  0  0  0  0  0  0  0
   -0.0356   -1.5614    2.4524 H   0  0  0  0  0  0  0  0  0  0  0  0
   -3.2554    0.9230    1.9145 H   0  0  0  0  0  0  0  0  0  0  0  0
   -2.3041    2.4127    2.1987 H   0  0  0  0  0  0  0  0  0  0  0  0
   -4.7196    2.9480    1.8824 H   0  0  0  0  0  0  0  0  0  0  0  0
   -3.7458    3.6271    0.5667 H   0  0  0  0  0  0  0  0  0  0  0  0
   -4.6913    2.1596    0.2940 H   0  0  0  0  0  0  0  0  0  0  0  0
   -4.2897   -1.7621   -0.4335 H   0  0  0  0  0  0  0  0  0  0  0  0
   -5.1646   -0.7957   -1.6590 H   0  0  0  0  0  0  0  0  0  0  0  0
   -2.4368   -2.1423   -2.0291 H   0  0  0  0  0  0  0  0  0  0  0  0
   -3.9655   -2.6929   -2.7325 H   0  0  0  0  0  0  0  0  0  0  0  0
   -3.2479   -1.1545   -3.2463 H   0  0  0  0  0  0  0  0  0  0  0  0
  1  2  1  0  0  0  0
  2  3  1  0  0  0  0
  3  4  2  0  0  0  0
  4  5  2  0  0  0  0
  4  6  2  0  0  0  0
  6  7  1  0  0  0  0
  7  8  1  0  0  0  0
  4  9  1  0  0  0  0
  9 10  1  0  0  0  0
 10 11  1  0  0  0  0
 11 12  1  0  0  0  0
 12 13  2  0  0  0  0
 12 14  2  0  0  0  0
 14 15  1  0  0  0  0
 15 16  1  0  0  0  0
 12 17  2  0  0  0  0
 17 18  1  0  0  0  0
 18 19  1  0  0  0  0
  1 20  1  0  0  0  0
  1 21  1  0  0  0  0
  1 22  1  0  0  0  0
  2 23  1  0  0  0  0
  2 24  1  0  0  0  0
  7 25  1  0  0  0  0
  7 26  1  0  0  0  0
  8 27  1  0  0  0  0
  8 28  1  0  0  0  0
  8 29  1  0  0  0  0
 10 30  1  0  0  0  0
 10 31  1  0  0  0  0
 15 32  1  0  0  0  0
 15 33  1  0  0  0  0
 16 34  1  0  0  0  0
 16 35  1  0  0  0  0
 16 36  1  0  0  0  0
 18 37  1  0  0  0  0
 18 38  1  0  0  0  0
 19 39  1  0  0  0  0
 19 40  1  0  0  0  0
 19 41  1  0  0  0  0
M  END
