 xtb: 6.7.1 (edcfbbe)
          04092505213D

 41 40  0     0  0            999 V2000
    3.1493    0.9058    3.1571 C   0  0  0  0  0  0  0  0  0  0  0  0
    2.6017    1.7307    2.0121 C   0  0  0  0  0  0  0  0  0  0  0  0
    1.7539    0.9538    1.1307 O   0  0  0  0  0  0  0  0  0  0  0  0
    2.2499   -0.3123    0.3212 P   0  0  0  0  0  0  0  0  0  0  0  0
    2.3792   -2.0329    1.2637 S   0  0  0  0  0  0  0  0  0  0  0  0
    3.6156    0.2132   -0.2953 O   0  0  0  0  0  0  0  0  0  0  0  0
    4.5341   -0.6649   -0.9755 C   0  0  0  0  0  0  0  0  0  0  0  0
    5.9310   -0.0970   -0.8222 C   0  0  0  0  0  0  0  0  0  0  0  0
    0.8968   -0.3108   -1.3122 S   0  0  0  0  0  0  0  0  0  0  0  0
   -0.2731   -1.5225   -0.6448 C   0  0  0  0  0  0  0  0  0  0  0  0
   -1.3588   -0.8218    0.6109 S   0  0  0  0  0  0  0  0  0  0  0  0
   -2.5529    0.3395   -0.7338 P   0  0  0  0  0  0  0  0  0  0  0  0
   -2.7871   -0.4738   -2.5009 S   0  0  0  0  0  0  0  0  0  0  0  0
   -1.9004    1.7634   -0.9139 O   0  0  0  0  0  0  0  0  0  0  0  0
   -1.9519    2.8656    0.0241 C   0  0  0  0  0  0  0  0  0  0  0  0
   -1.3485    2.5231    1.3700 C   0  0  0  0  0  0  0  0  0  0  0  0
   -3.8476    0.6845    0.1182 O   0  0  0  0  0  0  0  0  0  0  0  0
   -4.6380   -0.2682    0.8540 C   0  0  0  0  0  0  0  0  0  0  0  0
   -5.1403   -1.4063   -0.0087 C   0  0  0  0  0  0  0  0  0  0  0  0
    2.3376    0.4346    3.7063 H   0  0  0  0  0  0  0  0  0  0  0  0
    3.8059    0.1240    2.7779 H   0  0  0  0  0  0  0  0  0  0  0  0
    3.7126    1.5481    3.8267 H   0  0  0  0  0  0  0  0  0  0  0  0
    3.4083    2.1614    1.4157 H   0  0  0  0  0  0  0  0  0  0  0  0
    1.9402    2.5207    2.3716 H   0  0  0  0  0  0  0  0  0  0  0  0
    4.4575   -1.6636   -0.5319 H   0  0  0  0  0  0  0  0  0  0  0  0
    4.2352   -0.7142   -2.0254 H   0  0  0  0  0  0  0  0  0  0  0  0
    6.2114   -0.0652    0.2271 H   0  0  0  0  0  0  0  0  0  0  0  0
    6.6309   -0.7289   -1.3588 H   0  0  0  0  0  0  0  0  0  0  0  0
    5.9701    0.9090   -1.2299 H   0  0  0  0  0  0  0  0  0  0  0  0
    0.2784   -2.3364   -0.1723 H   0  0  0  0  0  0  0  0  0  0  0  0
   -0.8723   -1.8728   -1.4864 H   0  0  0  0  0  0  0  0  0  0  0  0
   -1.3821    3.6459   -0.4833 H   0  0  0  0  0  0  0  0  0  0  0  0
   -2.9944    3.1725    0.1278 H   0  0  0  0  0  0  0  0  0  0  0  0
   -1.3051    3.4224    1.9767 H   0  0  0  0  0  0  0  0  0  0  0  0
   -1.9539    1.7783    1.8831 H   0  0  0  0  0  0  0  0  0  0  0  0
   -0.3445    2.1259    1.2415 H   0  0  0  0  0  0  0  0  0  0  0  0
   -4.0314   -0.6496    1.6802 H   0  0  0  0  0  0  0  0  0  0  0  0
   -5.4628    0.3316    1.2430 H   0  0  0  0  0  0  0  0  0  0  0  0
   -4.3033   -2.0018   -0.3702 H   0  0  0  0  0  0  0  0  0  0  0  0
   -5.7980   -2.0397    0.5777 H   0  0  0  0  0  0  0  0  0  0  0  0
   -5.6820   -1.0209   -0.8691 H   0  0  0  0  0  0  0  0  0  0  0  0
  1  2  1  0  0  0  0
  2  3  1  0  0  0  0
  3  4  2  0  0  0  0
  4  5  2  0  0  0  0
  4  6  2  0  0  0  0
  6  7  1  0  0  0  0
  7  8  1  0  0  0  0
  4  9  1  0  0  0  0
  9 10  1  0  0  0  0
 10 11  1  0  0  0  0
 11 12  1  0  0  0  0
 12 13  2  0  0  0  0
 12 14  2  0  0  0  0
 14 15  1  0  0  0  0
 15 16  1  0  0  0  0
 12 17  2  0  0  0  0
 17 18  1  0  0  0  0
 18 19  1  0  0  0  0
  1 20  1  0  0  0  0
  1 21  1  0  0  0  0
  1 22  1  0  0  0  0
  2 23  1  0  0  0  0
  2 24  1  0  0  0  0
  7 25  1  0  0  0  0
  7 26  1  0  0  0  0
  8 27  1  0  0  0  0
  8 28  1  0  0  0  0
  8 29  1  0  0  0  0
 10 30  1  0  0  0  0
 10 31  1  0  0  0  0
 15 32  1  0  0  0  0
 15 33  1  0  0  0  0
 16 34  1  0  0  0  0
 16 35  1  0  0  0  0
 16 36  1  0  0  0  0
 18 37  1  0  0  0  0
 18 38  1  0  0  0  0
 19 39  1  0  0  0  0
 19 40  1  0  0  0  0
 19 41  1  0  0  0  0
M  END
