 xtb: 6.7.1 (edcfbbe)
          04092507313D

 38 37  0     0  0            999 V2000
    4.5114   -3.0331   -1.8147 C   0  0  0  0  0  0  0  0  0  0  0  0
    2.9964   -2.9492   -1.9164 C   0  0  0  0  0  0  0  0  0  0  0  0
    2.5118   -1.7218   -1.3405 O   0  0  0  0  0  0  0  0  0  0  0  0
    2.2440   -1.6948   -0.0512 C   0  0  0  0  0  0  0  0  0  0  0  0
    2.3719   -2.6352    0.7005 O   0  0  0  0  0  0  0  0  0  0  0  0
    1.7614   -0.3291    0.4042 C   0  0  0  0  0  0  0  0  0  0  0  0
    0.9730    0.4015   -0.6813 C   0  0  0  0  0  0  0  0  0  0  0  0
    1.6040    0.5650   -1.5576 H   0  0  0  0  0  0  0  0  0  0  0  0
    0.4475    1.7234   -0.1656 C   0  0  0  0  0  0  0  0  0  0  0  0
   -0.7456    1.9547   -0.0717 O   0  0  0  0  0  0  0  0  0  0  0  0
    1.3895    2.5486    0.1710 O   0  0  0  0  0  0  0  0  0  0  0  0
    1.0063    3.8275    0.7317 C   0  0  0  0  0  0  0  0  0  0  0  0
    2.2719    4.5486    1.1476 C   0  0  0  0  0  0  0  0  0  0  0  0
   -0.4535   -0.5683   -1.2844 S   0  0  0  0  0  0  0  0  0  0  0  0
   -1.8839   -0.1940    0.2246 P   0  0  0  0  0  0  0  0  0  0  0  0
   -1.4677    0.1364    2.1248 S   0  0  0  0  0  0  0  0  0  0  0  0
   -3.1330    0.6207   -0.3507 O   0  0  0  0  0  0  0  0  0  0  0  0
   -3.4956    1.9610   -0.0200 C   0  0  0  0  0  0  0  0  0  0  0  0
   -2.4728   -1.6781    0.0191 O   0  0  0  0  0  0  0  0  0  0  0  0
   -3.5836   -2.1514    0.7834 C   0  0  0  0  0  0  0  0  0  0  0  0
    4.8549   -3.9317   -2.3162 H   0  0  0  0  0  0  0  0  0  0  0  0
    4.9665   -2.1648   -2.2828 H   0  0  0  0  0  0  0  0  0  0  0  0
    4.8135   -3.0747   -0.7708 H   0  0  0  0  0  0  0  0  0  0  0  0
    2.5248   -3.7886   -1.3980 H   0  0  0  0  0  0  0  0  0  0  0  0
    2.6660   -2.9106   -2.9544 H   0  0  0  0  0  0  0  0  0  0  0  0
    2.6367    0.2681    0.6714 H   0  0  0  0  0  0  0  0  0  0  0  0
    1.1582   -0.4724    1.3043 H   0  0  0  0  0  0  0  0  0  0  0  0
    0.4543    4.3814   -0.0325 H   0  0  0  0  0  0  0  0  0  0  0  0
    0.3400    3.6416    1.5792 H   0  0  0  0  0  0  0  0  0  0  0  0
    2.9261    4.6773    0.2909 H   0  0  0  0  0  0  0  0  0  0  0  0
    2.0108    5.5223    1.5483 H   0  0  0  0  0  0  0  0  0  0  0  0
    2.7955    3.9797    1.9095 H   0  0  0  0  0  0  0  0  0  0  0  0
   -3.0479    2.6462   -0.7364 H   0  0  0  0  0  0  0  0  0  0  0  0
   -3.1536    2.2051    0.9867 H   0  0  0  0  0  0  0  0  0  0  0  0
   -4.5816    1.9962   -0.0744 H   0  0  0  0  0  0  0  0  0  0  0  0
   -4.5048   -1.6875    0.4321 H   0  0  0  0  0  0  0  0  0  0  0  0
   -3.4345   -1.9252    1.8417 H   0  0  0  0  0  0  0  0  0  0  0  0
   -3.6118   -3.2269    0.6276 H   0  0  0  0  0  0  0  0  0  0  0  0
  1  2  1  0  0  0  0
  2  3  1  0  0  0  0
  3  4  1  0  0  0  0
  4  5  2  0  0  0  0
  4  6  1  0  0  0  0
  6  7  1  0  0  0  0
  7  8  1  0  0  0  0
  7  9  1  0  0  0  0
  9 10  2  0  0  0  0
  9 11  4  0  0  0  0
 11 12  1  0  0  0  0
 12 13  1  0  0  0  0
  7 14  1  0  0  0  0
 14 15  1  0  0  0  0
 15 16  2  0  0  0  0
 15 17  2  0  0  0  0
 17 18  1  0  0  0  0
 15 19  1  0  0  0  0
 19 20  1  0  0  0  0
  1 21  1  0  0  0  0
  1 22  1  0  0  0  0
  1 23  1  0  0  0  0
  2 24  1  0  0  0  0
  2 25  1  0  0  0  0
  6 26  1  0  0  0  0
  6 27  1  0  0  0  0
 12 28  1  0  0  0  0
 12 29  1  0  0  0  0
 13 30  1  0  0  0  0
 13 31  1  0  0  0  0
 13 32  1  0  0  0  0
 18 33  1  0  0  0  0
 18 34  1  0  0  0  0
 18 35  1  0  0  0  0
 20 36  1  0  0  0  0
 20 37  1  0  0  0  0
 20 38  1  0  0  0  0
M  END
