 xtb: 6.7.1 (edcfbbe)
          04092507313D

 38 37  0     0  0            999 V2000
    4.1786   -3.2550   -2.5240 C   0  0  0  0  0  0  0  0  0  0  0  0
    2.8440   -3.2713   -1.8053 C   0  0  0  0  0  0  0  0  0  0  0  0
    2.7512   -2.0762   -1.0037 O   0  0  0  0  0  0  0  0  0  0  0  0
    1.8267   -2.0256   -0.0711 C   0  0  0  0  0  0  0  0  0  0  0  0
    1.0501   -2.9235    0.1737 O   0  0  0  0  0  0  0  0  0  0  0  0
    1.8176   -0.6852    0.6373 C   0  0  0  0  0  0  0  0  0  0  0  0
    1.2374    0.3753   -0.3006 C   0  0  0  0  0  0  0  0  0  0  0  0
    1.9291    0.5451   -1.1328 H   0  0  0  0  0  0  0  0  0  0  0  0
    1.0404    1.7021    0.4168 C   0  0  0  0  0  0  0  0  0  0  0  0
    1.8380    2.1237    1.2184 O   0  0  0  0  0  0  0  0  0  0  0  0
   -0.0552    2.3261    0.0295 O   0  0  0  0  0  0  0  0  0  0  0  0
   -0.3370    3.6197    0.6013 C   0  0  0  0  0  0  0  0  0  0  0  0
    0.3462    4.7188   -0.1938 C   0  0  0  0  0  0  0  0  0  0  0  0
   -0.2911   -0.1881   -1.1216 S   0  0  0  0  0  0  0  0  0  0  0  0
   -1.7255    0.0986    0.4230 P   0  0  0  0  0  0  0  0  0  0  0  0
   -1.1413    0.3471    2.2773 S   0  0  0  0  0  0  0  0  0  0  0  0
   -2.6877    1.2552   -0.0557 O   0  0  0  0  0  0  0  0  0  0  0  0
   -3.3103    1.2533   -1.3568 C   0  0  0  0  0  0  0  0  0  0  0  0
   -2.6722   -1.1767    0.2084 O   0  0  0  0  0  0  0  0  0  0  0  0
   -2.2850   -2.4753    0.6694 C   0  0  0  0  0  0  0  0  0  0  0  0
    4.9918   -3.2432   -1.8043 H   0  0  0  0  0  0  0  0  0  0  0  0
    4.2624   -4.1419   -3.1430 H   0  0  0  0  0  0  0  0  0  0  0  0
    4.2525   -2.3718   -3.1510 H   0  0  0  0  0  0  0  0  0  0  0  0
    2.7424   -4.1388   -1.1461 H   0  0  0  0  0  0  0  0  0  0  0  0
    2.0059   -3.2683   -2.5086 H   0  0  0  0  0  0  0  0  0  0  0  0
    2.8315   -0.3924    0.9095 H   0  0  0  0  0  0  0  0  0  0  0  0
    1.2094   -0.7678    1.5401 H   0  0  0  0  0  0  0  0  0  0  0  0
   -1.4236    3.7019    0.5608 H   0  0  0  0  0  0  0  0  0  0  0  0
   -0.0012    3.6133    1.6422 H   0  0  0  0  0  0  0  0  0  0  0  0
    1.4263    4.6156   -0.1218 H   0  0  0  0  0  0  0  0  0  0  0  0
    0.0501    4.6661   -1.2378 H   0  0  0  0  0  0  0  0  0  0  0  0
    0.0566    5.6817    0.2134 H   0  0  0  0  0  0  0  0  0  0  0  0
   -3.8398    2.2003   -1.4188 H   0  0  0  0  0  0  0  0  0  0  0  0
   -4.0015    0.4167   -1.4352 H   0  0  0  0  0  0  0  0  0  0  0  0
   -2.5475    1.1834   -2.1323 H   0  0  0  0  0  0  0  0  0  0  0  0
   -1.3436   -2.7867    0.2140 H   0  0  0  0  0  0  0  0  0  0  0  0
   -3.0914   -3.1414    0.3752 H   0  0  0  0  0  0  0  0  0  0  0  0
   -2.1713   -2.4653    1.7540 H   0  0  0  0  0  0  0  0  0  0  0  0
  1  2  1  0  0  0  0
  2  3  1  0  0  0  0
  3  4  4  0  0  0  0
  4  5  2  0  0  0  0
  4  6  1  0  0  0  0
  6  7  1  0  0  0  0
  7  8  1  0  0  0  0
  7  9  1  0  0  0  0
  9 10  2  0  0  0  0
  9 11  1  0  0  0  0
 11 12  1  0  0  0  0
 12 13  1  0  0  0  0
  7 14  1  0  0  0  0
 14 15  1  0  0  0  0
 15 16  2  0  0  0  0
 15 17  2  0  0  0  0
 17 18  1  0  0  0  0
 15 19  1  0  0  0  0
 19 20  1  0  0  0  0
  1 21  1  0  0  0  0
  1 22  1  0  0  0  0
  1 23  1  0  0  0  0
  2 24  1  0  0  0  0
  2 25  1  0  0  0  0
  6 26  1  0  0  0  0
  6 27  1  0  0  0  0
 12 28  1  0  0  0  0
 12 29  1  0  0  0  0
 13 30  1  0  0  0  0
 13 31  1  0  0  0  0
 13 32  1  0  0  0  0
 18 33  1  0  0  0  0
 18 34  1  0  0  0  0
 18 35  1  0  0  0  0
 20 36  1  0  0  0  0
 20 37  1  0  0  0  0
 20 38  1  0  0  0  0
M  END
