 xtb: 6.7.1 (edcfbbe)
          04092505213D

 41 40  0     0  0            999 V2000
    2.1847    2.3787   -0.7609 C   0  0  0  0  0  0  0  0  0  0  0  0
    2.0895    0.9971   -1.3699 C   0  0  0  0  0  0  0  0  0  0  0  0
    1.3573    0.0657   -0.5429 O   0  0  0  0  0  0  0  0  0  0  0  0
    1.7315   -0.2412    0.9859 P   0  0  0  0  0  0  0  0  0  0  0  0
    1.0177    0.9813    2.3311 S   0  0  0  0  0  0  0  0  0  0  0  0
    3.3084   -0.2866    1.1099 O   0  0  0  0  0  0  0  0  0  0  0  0
    4.1605   -1.2361    0.4132 C   0  0  0  0  0  0  0  0  0  0  0  0
    5.4939   -0.5653    0.1529 C   0  0  0  0  0  0  0  0  0  0  0  0
    1.1721   -2.2811    1.0864 S   0  0  0  0  0  0  0  0  0  0  0  0
   -0.4079   -2.2596    0.1899 C   0  0  0  0  0  0  0  0  0  0  0  0
   -1.6098   -1.0747    0.8417 S   0  0  0  0  0  0  0  0  0  0  0  0
   -1.7470    0.2600   -0.8252 P   0  0  0  0  0  0  0  0  0  0  0  0
   -0.9865   -0.3622   -2.5147 S   0  0  0  0  0  0  0  0  0  0  0  0
   -1.1373    1.6516   -0.4047 O   0  0  0  0  0  0  0  0  0  0  0  0
   -1.6753    2.4553    0.6739 C   0  0  0  0  0  0  0  0  0  0  0  0
   -2.5074    3.5910    0.1167 C   0  0  0  0  0  0  0  0  0  0  0  0
   -3.3008    0.6089   -0.8269 O   0  0  0  0  0  0  0  0  0  0  0  0
   -4.3775   -0.3455   -0.8056 C   0  0  0  0  0  0  0  0  0  0  0  0
   -4.2995   -1.3520   -1.9344 C   0  0  0  0  0  0  0  0  0  0  0  0
    2.7225    3.0323   -1.4407 H   0  0  0  0  0  0  0  0  0  0  0  0
    1.1890    2.7795   -0.5882 H   0  0  0  0  0  0  0  0  0  0  0  0
    2.7129    2.3349    0.1917 H   0  0  0  0  0  0  0  0  0  0  0  0
    3.0835    0.5845   -1.5565 H   0  0  0  0  0  0  0  0  0  0  0  0
    1.5169    1.0059   -2.3004 H   0  0  0  0  0  0  0  0  0  0  0  0
    4.2729   -2.1036    1.0671 H   0  0  0  0  0  0  0  0  0  0  0  0
    3.6747   -1.5512   -0.5140 H   0  0  0  0  0  0  0  0  0  0  0  0
    6.1609   -1.2773   -0.3225 H   0  0  0  0  0  0  0  0  0  0  0  0
    5.3713    0.2989   -0.4949 H   0  0  0  0  0  0  0  0  0  0  0  0
    5.9291   -0.2360    1.0920 H   0  0  0  0  0  0  0  0  0  0  0  0
   -0.8168   -3.2588    0.3200 H   0  0  0  0  0  0  0  0  0  0  0  0
   -0.2339   -2.0336   -0.8665 H   0  0  0  0  0  0  0  0  0  0  0  0
   -2.2616    1.8166    1.3396 H   0  0  0  0  0  0  0  0  0  0  0  0
   -0.8029    2.8206    1.2204 H   0  0  0  0  0  0  0  0  0  0  0  0
   -2.8563    4.2078    0.9388 H   0  0  0  0  0  0  0  0  0  0  0  0
   -1.9081    4.1963   -0.5577 H   0  0  0  0  0  0  0  0  0  0  0  0
   -3.3613    3.1982   -0.4292 H   0  0  0  0  0  0  0  0  0  0  0  0
   -4.3690   -0.8501    0.1646 H   0  0  0  0  0  0  0  0  0  0  0  0
   -5.2703    0.2767   -0.8899 H   0  0  0  0  0  0  0  0  0  0  0  0
   -5.1888   -1.9738   -1.9216 H   0  0  0  0  0  0  0  0  0  0  0  0
   -4.2292   -0.8430   -2.8928 H   0  0  0  0  0  0  0  0  0  0  0  0
   -3.4216   -1.9852   -1.8172 H   0  0  0  0  0  0  0  0  0  0  0  0
  1  2  1  0  0  0  0
  2  3  1  0  0  0  0
  3  4  1  0  0  0  0
  4  5  2  0  0  0  0
  4  6  2  0  0  0  0
  6  7  1  0  0  0  0
  7  8  1  0  0  0  0
  4  9  1  0  0  0  0
  9 10  1  0  0  0  0
 10 11  1  0  0  0  0
 11 12  1  0  0  0  0
 12 13  2  0  0  0  0
 12 14  2  0  0  0  0
 14 15  1  0  0  0  0
 15 16  1  0  0  0  0
 12 17  2  0  0  0  0
 17 18  1  0  0  0  0
 18 19  1  0  0  0  0
  1 20  1  0  0  0  0
  1 21  1  0  0  0  0
  1 22  1  0  0  0  0
  2 23  1  0  0  0  0
  2 24  1  0  0  0  0
  7 25  1  0  0  0  0
  7 26  1  0  0  0  0
  8 27  1  0  0  0  0
  8 28  1  0  0  0  0
  8 29  1  0  0  0  0
 10 30  1  0  0  0  0
 10 31  1  0  0  0  0
 15 32  1  0  0  0  0
 15 33  1  0  0  0  0
 16 34  1  0  0  0  0
 16 35  1  0  0  0  0
 16 36  1  0  0  0  0
 18 37  1  0  0  0  0
 18 38  1  0  0  0  0
 19 39  1  0  0  0  0
 19 40  1  0  0  0  0
 19 41  1  0  0  0  0
M  END
