 xtb: 6.7.1 (edcfbbe)
          04092505203D

 41 40  0     0  0            999 V2000
    5.5595    1.4975   -0.5173 C   0  0  0  0  0  0  0  0  0  0  0  0
    4.2864    0.8468   -1.0180 C   0  0  0  0  0  0  0  0  0  0  0  0
    3.4071    0.6697    0.1125 O   0  0  0  0  0  0  0  0  0  0  0  0
    1.8716    0.3269   -0.0902 P   0  0  0  0  0  0  0  0  0  0  0  0
    0.8854    1.5542   -1.2579 S   0  0  0  0  0  0  0  0  0  0  0  0
    1.3241    0.3341    1.3832 O   0  0  0  0  0  0  0  0  0  0  0  0
    2.0403   -0.0923    2.5711 C   0  0  0  0  0  0  0  0  0  0  0  0
    2.3711   -1.5697    2.5596 C   0  0  0  0  0  0  0  0  0  0  0  0
    1.9357   -1.6721   -0.8268 S   0  0  0  0  0  0  0  0  0  0  0  0
    0.1800   -1.8729   -1.1785 C   0  0  0  0  0  0  0  0  0  0  0  0
   -0.8488   -1.8670    0.3319 S   0  0  0  0  0  0  0  0  0  0  0  0
   -2.0752   -0.2103   -0.0443 P   0  0  0  0  0  0  0  0  0  0  0  0
   -2.3955    0.2335   -1.9317 S   0  0  0  0  0  0  0  0  0  0  0  0
   -1.4561    0.9060    0.8873 O   0  0  0  0  0  0  0  0  0  0  0  0
   -1.9245    2.2723    0.8193 C   0  0  0  0  0  0  0  0  0  0  0  0
   -1.0529    3.1031    1.7356 C   0  0  0  0  0  0  0  0  0  0  0  0
   -3.3923   -0.5608    0.7819 O   0  0  0  0  0  0  0  0  0  0  0  0
   -4.3974   -1.4617    0.2719 C   0  0  0  0  0  0  0  0  0  0  0  0
   -5.5751   -0.6835   -0.2816 C   0  0  0  0  0  0  0  0  0  0  0  0
    6.2394    1.6339   -1.3517 H   0  0  0  0  0  0  0  0  0  0  0  0
    5.3364    2.4648   -0.0758 H   0  0  0  0  0  0  0  0  0  0  0  0
    6.0303    0.8668    0.2309 H   0  0  0  0  0  0  0  0  0  0  0  0
    4.4821   -0.1365   -1.4534 H   0  0  0  0  0  0  0  0  0  0  0  0
    3.7775    1.4716   -1.7593 H   0  0  0  0  0  0  0  0  0  0  0  0
    2.9433    0.5141    2.6577 H   0  0  0  0  0  0  0  0  0  0  0  0
    1.3438    0.1545    3.3740 H   0  0  0  0  0  0  0  0  0  0  0  0
    3.1092   -1.7917    1.7921 H   0  0  0  0  0  0  0  0  0  0  0  0
    2.7763   -1.8443    3.5286 H   0  0  0  0  0  0  0  0  0  0  0  0
    1.4756   -2.1574    2.3684 H   0  0  0  0  0  0  0  0  0  0  0  0
    0.0755   -2.8454   -1.6523 H   0  0  0  0  0  0  0  0  0  0  0  0
   -0.1681   -1.0728   -1.8385 H   0  0  0  0  0  0  0  0  0  0  0  0
   -1.8474    2.6091   -0.2205 H   0  0  0  0  0  0  0  0  0  0  0  0
   -2.9728    2.2914    1.1281 H   0  0  0  0  0  0  0  0  0  0  0  0
   -0.0186    3.0477    1.4046 H   0  0  0  0  0  0  0  0  0  0  0  0
   -1.3850    4.1356    1.7028 H   0  0  0  0  0  0  0  0  0  0  0  0
   -1.1195    2.7287    2.7528 H   0  0  0  0  0  0  0  0  0  0  0  0
   -3.9548   -2.0969   -0.5003 H   0  0  0  0  0  0  0  0  0  0  0  0
   -4.6871   -2.0734    1.1280 H   0  0  0  0  0  0  0  0  0  0  0  0
   -5.2578   -0.0817   -1.1308 H   0  0  0  0  0  0  0  0  0  0  0  0
   -6.3415   -1.3791   -0.6073 H   0  0  0  0  0  0  0  0  0  0  0  0
   -5.9834   -0.0280    0.4823 H   0  0  0  0  0  0  0  0  0  0  0  0
  1  2  1  0  0  0  0
  2  3  1  0  0  0  0
  3  4  2  0  0  0  0
  4  5  2  0  0  0  0
  4  6  2  0  0  0  0
  6  7  1  0  0  0  0
  7  8  1  0  0  0  0
  4  9  1  0  0  0  0
  9 10  1  0  0  0  0
 10 11  1  0  0  0  0
 11 12  1  0  0  0  0
 12 13  2  0  0  0  0
 12 14  2  0  0  0  0
 14 15  1  0  0  0  0
 15 16  1  0  0  0  0
 12 17  2  0  0  0  0
 17 18  1  0  0  0  0
 18 19  1  0  0  0  0
  1 20  1  0  0  0  0
  1 21  1  0  0  0  0
  1 22  1  0  0  0  0
  2 23  1  0  0  0  0
  2 24  1  0  0  0  0
  7 25  1  0  0  0  0
  7 26  1  0  0  0  0
  8 27  1  0  0  0  0
  8 28  1  0  0  0  0
  8 29  1  0  0  0  0
 10 30  1  0  0  0  0
 10 31  1  0  0  0  0
 15 32  1  0  0  0  0
 15 33  1  0  0  0  0
 16 34  1  0  0  0  0
 16 35  1  0  0  0  0
 16 36  1  0  0  0  0
 18 37  1  0  0  0  0
 18 38  1  0  0  0  0
 19 39  1  0  0  0  0
 19 40  1  0  0  0  0
 19 41  1  0  0  0  0
M  END
