 xtb: 6.7.1 (edcfbbe)
          04092507313D

 38 37  0     0  0            999 V2000
    4.7168   -3.3042   -1.8667 C   0  0  0  0  0  0  0  0  0  0  0  0
    3.7413   -3.6075   -0.7404 C   0  0  0  0  0  0  0  0  0  0  0  0
    3.3566   -2.4015   -0.0525 O   0  0  0  0  0  0  0  0  0  0  0  0
    2.3463   -1.7007   -0.5291 C   0  0  0  0  0  0  0  0  0  0  0  0
    1.6864   -2.0091   -1.4958 O   0  0  0  0  0  0  0  0  0  0  0  0
    2.1208   -0.4467    0.2955 C   0  0  0  0  0  0  0  0  0  0  0  0
    0.7226    0.0977    0.0593 C   0  0  0  0  0  0  0  0  0  0  0  0
    0.5147    0.1155   -1.0193 H   0  0  0  0  0  0  0  0  0  0  0  0
    0.4850    1.4944    0.5899 C   0  0  0  0  0  0  0  0  0  0  0  0
   -0.5895    1.8289    1.0537 O   0  0  0  0  0  0  0  0  0  0  0  0
    1.5138    2.2802    0.4646 O   0  0  0  0  0  0  0  0  0  0  0  0
    1.3619    3.6602    0.8725 C   0  0  0  0  0  0  0  0  0  0  0  0
    2.6728    4.3709    0.6048 C   0  0  0  0  0  0  0  0  0  0  0  0
   -0.5401   -0.9887    0.8226 S   0  0  0  0  0  0  0  0  0  0  0  0
   -2.2627    0.0437    0.1489 P   0  0  0  0  0  0  0  0  0  0  0  0
   -2.1230    1.1406   -1.4785 S   0  0  0  0  0  0  0  0  0  0  0  0
   -3.2521   -1.2026   -0.0577 O   0  0  0  0  0  0  0  0  0  0  0  0
   -3.0320   -2.1435   -1.1103 C   0  0  0  0  0  0  0  0  0  0  0  0
   -3.0692    0.6141    1.3868 O   0  0  0  0  0  0  0  0  0  0  0  0
   -3.3170    1.9970    1.6530 C   0  0  0  0  0  0  0  0  0  0  0  0
    5.0422   -4.2348   -2.3197 H   0  0  0  0  0  0  0  0  0  0  0  0
    4.2333   -2.6934   -2.6257 H   0  0  0  0  0  0  0  0  0  0  0  0
    5.5814   -2.7721   -1.4799 H   0  0  0  0  0  0  0  0  0  0  0  0
    4.2028   -4.2247    0.0304 H   0  0  0  0  0  0  0  0  0  0  0  0
    2.8398   -4.0907   -1.1276 H   0  0  0  0  0  0  0  0  0  0  0  0
    2.8538    0.3009   -0.0155 H   0  0  0  0  0  0  0  0  0  0  0  0
    2.2852   -0.6821    1.3465 H   0  0  0  0  0  0  0  0  0  0  0  0
    0.5356    4.0940    0.3017 H   0  0  0  0  0  0  0  0  0  0  0  0
    1.0974    3.6747    1.9335 H   0  0  0  0  0  0  0  0  0  0  0  0
    2.5781    5.4119    0.8949 H   0  0  0  0  0  0  0  0  0  0  0  0
    3.4723    3.9115    1.1777 H   0  0  0  0  0  0  0  0  0  0  0  0
    2.9180    4.3161   -0.4514 H   0  0  0  0  0  0  0  0  0  0  0  0
   -2.9828   -1.6261   -2.0706 H   0  0  0  0  0  0  0  0  0  0  0  0
   -3.8850   -2.8163   -1.0838 H   0  0  0  0  0  0  0  0  0  0  0  0
   -2.1047   -2.6941   -0.9437 H   0  0  0  0  0  0  0  0  0  0  0  0
   -2.6266    2.3405    2.4206 H   0  0  0  0  0  0  0  0  0  0  0  0
   -4.3471    2.0566    1.9978 H   0  0  0  0  0  0  0  0  0  0  0  0
   -3.1833    2.5899    0.7467 H   0  0  0  0  0  0  0  0  0  0  0  0
  1  2  1  0  0  0  0
  2  3  1  0  0  0  0
  3  4  1  0  0  0  0
  4  5  2  0  0  0  0
  4  6  1  0  0  0  0
  6  7  1  0  0  0  0
  7  8  1  0  0  0  0
  7  9  1  0  0  0  0
  9 10  2  0  0  0  0
  9 11  4  0  0  0  0
 11 12  1  0  0  0  0
 12 13  1  0  0  0  0
  7 14  1  0  0  0  0
 14 15  1  0  0  0  0
 15 16  2  0  0  0  0
 15 17  1  0  0  0  0
 17 18  1  0  0  0  0
 15 19  2  0  0  0  0
 19 20  1  0  0  0  0
  1 21  1  0  0  0  0
  1 22  1  0  0  0  0
  1 23  1  0  0  0  0
  2 24  1  0  0  0  0
  2 25  1  0  0  0  0
  6 26  1  0  0  0  0
  6 27  1  0  0  0  0
 12 28  1  0  0  0  0
 12 29  1  0  0  0  0
 13 30  1  0  0  0  0
 13 31  1  0  0  0  0
 13 32  1  0  0  0  0
 18 33  1  0  0  0  0
 18 34  1  0  0  0  0
 18 35  1  0  0  0  0
 20 36  1  0  0  0  0
 20 37  1  0  0  0  0
 20 38  1  0  0  0  0
M  END
