 xtb: 6.7.1 (edcfbbe)
          04092505213D

 41 40  0     0  0            999 V2000
    1.5781   -2.6311    2.3995 C   0  0  0  0  0  0  0  0  0  0  0  0
    0.8992   -1.9337    1.2373 C   0  0  0  0  0  0  0  0  0  0  0  0
    1.3162   -0.5580    1.1970 O   0  0  0  0  0  0  0  0  0  0  0  0
    2.1262    0.1172    0.0052 P   0  0  0  0  0  0  0  0  0  0  0  0
    2.9723   -1.1561   -1.2270 S   0  0  0  0  0  0  0  0  0  0  0  0
    3.0213    1.1790    0.7654 O   0  0  0  0  0  0  0  0  0  0  0  0
    3.8520    0.8550    1.9018 C   0  0  0  0  0  0  0  0  0  0  0  0
    5.0801    0.0618    1.5021 C   0  0  0  0  0  0  0  0  0  0  0  0
    0.8674    1.5651   -0.8909 S   0  0  0  0  0  0  0  0  0  0  0  0
    0.2276    0.5091   -2.2179 C   0  0  0  0  0  0  0  0  0  0  0  0
   -0.7336   -0.8941   -1.6013 S   0  0  0  0  0  0  0  0  0  0  0  0
   -2.2304    0.2636   -0.6261 P   0  0  0  0  0  0  0  0  0  0  0  0
   -2.7689    1.9377   -1.4703 S   0  0  0  0  0  0  0  0  0  0  0  0
   -1.6029    0.3872    0.8408 O   0  0  0  0  0  0  0  0  0  0  0  0
   -1.6420    1.5983    1.6135 C   0  0  0  0  0  0  0  0  0  0  0  0
   -2.9838    1.7539    2.2997 C   0  0  0  0  0  0  0  0  0  0  0  0
   -3.4446   -0.7423   -0.5188 O   0  0  0  0  0  0  0  0  0  0  0  0
   -3.3543   -2.1255   -0.0969 C   0  0  0  0  0  0  0  0  0  0  0  0
   -3.4391   -2.2542    1.4106 C   0  0  0  0  0  0  0  0  0  0  0  0
    1.3616   -2.1127    3.3295 H   0  0  0  0  0  0  0  0  0  0  0  0
    1.2110   -3.6502    2.4629 H   0  0  0  0  0  0  0  0  0  0  0  0
    2.6546   -2.6519    2.2455 H   0  0  0  0  0  0  0  0  0  0  0  0
   -0.1861   -1.9188    1.3547 H   0  0  0  0  0  0  0  0  0  0  0  0
    1.1551   -2.4143    0.2872 H   0  0  0  0  0  0  0  0  0  0  0  0
    4.1232    1.8316    2.3065 H   0  0  0  0  0  0  0  0  0  0  0  0
    3.2497    0.3066    2.6302 H   0  0  0  0  0  0  0  0  0  0  0  0
    4.7913   -0.9025    1.0873 H   0  0  0  0  0  0  0  0  0  0  0  0
    5.6473    0.6016    0.7481 H   0  0  0  0  0  0  0  0  0  0  0  0
    5.7050   -0.0986    2.3751 H   0  0  0  0  0  0  0  0  0  0  0  0
    1.0560    0.0865   -2.7863 H   0  0  0  0  0  0  0  0  0  0  0  0
   -0.4042    1.1409   -2.8411 H   0  0  0  0  0  0  0  0  0  0  0  0
   -0.8237    1.4921    2.3278 H   0  0  0  0  0  0  0  0  0  0  0  0
   -1.4424    2.4477    0.9524 H   0  0  0  0  0  0  0  0  0  0  0  0
   -3.1811    0.9049    2.9485 H   0  0  0  0  0  0  0  0  0  0  0  0
   -2.9838    2.6657    2.8883 H   0  0  0  0  0  0  0  0  0  0  0  0
   -3.7704    1.8164    1.5484 H   0  0  0  0  0  0  0  0  0  0  0  0
   -4.2055   -2.6028   -0.5854 H   0  0  0  0  0  0  0  0  0  0  0  0
   -2.4242   -2.5505   -0.4849 H   0  0  0  0  0  0  0  0  0  0  0  0
   -4.3566   -1.7970    1.7716 H   0  0  0  0  0  0  0  0  0  0  0  0
   -3.4356   -3.3068    1.6761 H   0  0  0  0  0  0  0  0  0  0  0  0
   -2.5925   -1.7637    1.8837 H   0  0  0  0  0  0  0  0  0  0  0  0
  1  2  1  0  0  0  0
  2  3  1  0  0  0  0
  3  4  2  0  0  0  0
  4  5  2  0  0  0  0
  4  6  2  0  0  0  0
  6  7  1  0  0  0  0
  7  8  1  0  0  0  0
  4  9  1  0  0  0  0
  9 10  1  0  0  0  0
 10 11  1  0  0  0  0
 11 12  1  0  0  0  0
 12 13  2  0  0  0  0
 12 14  1  0  0  0  0
 14 15  1  0  0  0  0
 15 16  1  0  0  0  0
 12 17  2  0  0  0  0
 17 18  1  0  0  0  0
 18 19  1  0  0  0  0
  1 20  1  0  0  0  0
  1 21  1  0  0  0  0
  1 22  1  0  0  0  0
  2 23  1  0  0  0  0
  2 24  1  0  0  0  0
  7 25  1  0  0  0  0
  7 26  1  0  0  0  0
  8 27  1  0  0  0  0
  8 28  1  0  0  0  0
  8 29  1  0  0  0  0
 10 30  1  0  0  0  0
 10 31  1  0  0  0  0
 15 32  1  0  0  0  0
 15 33  1  0  0  0  0
 16 34  1  0  0  0  0
 16 35  1  0  0  0  0
 16 36  1  0  0  0  0
 18 37  1  0  0  0  0
 18 38  1  0  0  0  0
 19 39  1  0  0  0  0
 19 40  1  0  0  0  0
 19 41  1  0  0  0  0
M  END
