 xtb: 6.7.1 (edcfbbe)
          04092505203D

 41 40  0     0  0            999 V2000
    4.6064   -0.0459   -1.7862 C   0  0  0  0  0  0  0  0  0  0  0  0
    4.3916    1.0445   -0.7572 C   0  0  0  0  0  0  0  0  0  0  0  0
    3.4700    0.6509    0.2752 O   0  0  0  0  0  0  0  0  0  0  0  0
    1.9307    0.3791   -0.0053 P   0  0  0  0  0  0  0  0  0  0  0  0
    1.0591    1.6057   -1.2636 S   0  0  0  0  0  0  0  0  0  0  0  0
    1.3073    0.4949    1.4406 O   0  0  0  0  0  0  0  0  0  0  0  0
    1.9537    0.1134    2.6836 C   0  0  0  0  0  0  0  0  0  0  0  0
    2.1200   -1.3859    2.8180 C   0  0  0  0  0  0  0  0  0  0  0  0
    1.8632   -1.6719   -0.5694 S   0  0  0  0  0  0  0  0  0  0  0  0
    0.1155   -1.7567   -1.0054 C   0  0  0  0  0  0  0  0  0  0  0  0
   -0.9880   -1.4977    0.4212 S   0  0  0  0  0  0  0  0  0  0  0  0
   -2.1517    0.1382   -0.2824 P   0  0  0  0  0  0  0  0  0  0  0  0
   -2.2021    0.4097   -2.2172 S   0  0  0  0  0  0  0  0  0  0  0  0
   -1.6822    1.4038    0.5341 O   0  0  0  0  0  0  0  0  0  0  0  0
   -1.7705    1.4626    1.9808 C   0  0  0  0  0  0  0  0  0  0  0  0
   -1.0678    2.7258    2.4305 C   0  0  0  0  0  0  0  0  0  0  0  0
   -3.5714   -0.1350    0.3910 O   0  0  0  0  0  0  0  0  0  0  0  0
   -4.5964   -0.9214   -0.2428 C   0  0  0  0  0  0  0  0  0  0  0  0
   -4.2021   -2.3757   -0.3990 C   0  0  0  0  0  0  0  0  0  0  0  0
    4.8658   -0.9825   -1.2993 H   0  0  0  0  0  0  0  0  0  0  0  0
    3.6984   -0.1919   -2.3692 H   0  0  0  0  0  0  0  0  0  0  0  0
    5.4083    0.2480   -2.4558 H   0  0  0  0  0  0  0  0  0  0  0  0
    4.0078    1.9520   -1.2334 H   0  0  0  0  0  0  0  0  0  0  0  0
    5.3088    1.2696   -0.2109 H   0  0  0  0  0  0  0  0  0  0  0  0
    2.9166    0.6236    2.7382 H   0  0  0  0  0  0  0  0  0  0  0  0
    1.2781    0.5101    3.4434 H   0  0  0  0  0  0  0  0  0  0  0  0
    2.8590   -1.7544    2.1108 H   0  0  0  0  0  0  0  0  0  0  0  0
    2.4528   -1.6114    3.8264 H   0  0  0  0  0  0  0  0  0  0  0  0
    1.1742   -1.8907    2.6326 H   0  0  0  0  0  0  0  0  0  0  0  0
   -0.0499   -2.7617   -1.3851 H   0  0  0  0  0  0  0  0  0  0  0  0
   -0.1217   -1.0047   -1.7636 H   0  0  0  0  0  0  0  0  0  0  0  0
   -2.8272    1.4669    2.2550 H   0  0  0  0  0  0  0  0  0  0  0  0
   -1.2932    0.5662    2.3879 H   0  0  0  0  0  0  0  0  0  0  0  0
   -0.0317    2.7088    2.1018 H   0  0  0  0  0  0  0  0  0  0  0  0
   -1.5521    3.5954    1.9953 H   0  0  0  0  0  0  0  0  0  0  0  0
   -1.1071    2.7924    3.5130 H   0  0  0  0  0  0  0  0  0  0  0  0
   -5.4550   -0.8052    0.4202 H   0  0  0  0  0  0  0  0  0  0  0  0
   -4.8149   -0.4766   -1.2184 H   0  0  0  0  0  0  0  0  0  0  0  0
   -3.8664   -2.7833    0.5512 H   0  0  0  0  0  0  0  0  0  0  0  0
   -5.0593   -2.9395   -0.7525 H   0  0  0  0  0  0  0  0  0  0  0  0
   -3.3984   -2.4650   -1.1283 H   0  0  0  0  0  0  0  0  0  0  0  0
  1  2  1  0  0  0  0
  2  3  1  0  0  0  0
  3  4  2  0  0  0  0
  4  5  2  0  0  0  0
  4  6  2  0  0  0  0
  6  7  1  0  0  0  0
  7  8  1  0  0  0  0
  4  9  1  0  0  0  0
  9 10  1  0  0  0  0
 10 11  1  0  0  0  0
 11 12  1  0  0  0  0
 12 13  2  0  0  0  0
 12 14  2  0  0  0  0
 14 15  1  0  0  0  0
 15 16  1  0  0  0  0
 12 17  2  0  0  0  0
 17 18  1  0  0  0  0
 18 19  1  0  0  0  0
  1 20  1  0  0  0  0
  1 21  1  0  0  0  0
  1 22  1  0  0  0  0
  2 23  1  0  0  0  0
  2 24  1  0  0  0  0
  7 25  1  0  0  0  0
  7 26  1  0  0  0  0
  8 27  1  0  0  0  0
  8 28  1  0  0  0  0
  8 29  1  0  0  0  0
 10 30  1  0  0  0  0
 10 31  1  0  0  0  0
 15 32  1  0  0  0  0
 15 33  1  0  0  0  0
 16 34  1  0  0  0  0
 16 35  1  0  0  0  0
 16 36  1  0  0  0  0
 18 37  1  0  0  0  0
 18 38  1  0  0  0  0
 19 39  1  0  0  0  0
 19 40  1  0  0  0  0
 19 41  1  0  0  0  0
M  END
