 xtb: 6.7.1 (edcfbbe)
          04092505213D

 41 40  0     0  0            999 V2000
    3.2559   -1.2444   -2.3810 C   0  0  0  0  0  0  0  0  0  0  0  0
    1.8627   -0.6617   -2.2850 C   0  0  0  0  0  0  0  0  0  0  0  0
    1.3706   -0.6787   -0.9326 O   0  0  0  0  0  0  0  0  0  0  0  0
    1.9993    0.2317    0.2035 P   0  0  0  0  0  0  0  0  0  0  0  0
    2.8296    1.9252   -0.3157 S   0  0  0  0  0  0  0  0  0  0  0  0
    2.9975   -0.8192    0.8761 O   0  0  0  0  0  0  0  0  0  0  0  0
    4.0554   -0.4133    1.7580 C   0  0  0  0  0  0  0  0  0  0  0  0
    3.5278    0.0847    3.0889 C   0  0  0  0  0  0  0  0  0  0  0  0
    0.3755    0.3329    1.5486 S   0  0  0  0  0  0  0  0  0  0  0  0
   -0.2207   -1.3735    1.4547 C   0  0  0  0  0  0  0  0  0  0  0  0
   -1.2018   -1.7681   -0.0395 S   0  0  0  0  0  0  0  0  0  0  0  0
   -1.9603    0.1153   -0.6010 P   0  0  0  0  0  0  0  0  0  0  0  0
   -0.8676    1.5191   -1.4297 S   0  0  0  0  0  0  0  0  0  0  0  0
   -2.7403    0.5297    0.7296 O   0  0  0  0  0  0  0  0  0  0  0  0
   -2.7872    1.8525    1.3022 C   0  0  0  0  0  0  0  0  0  0  0  0
   -2.6688    1.7354    2.8082 C   0  0  0  0  0  0  0  0  0  0  0  0
   -3.0772   -0.2918   -1.6482 O   0  0  0  0  0  0  0  0  0  0  0  0
   -4.1625   -1.2095   -1.3535 C   0  0  0  0  0  0  0  0  0  0  0  0
   -3.9333   -2.5391   -2.0436 C   0  0  0  0  0  0  0  0  0  0  0  0
    3.5498   -1.2985   -3.4245 H   0  0  0  0  0  0  0  0  0  0  0  0
    3.9588   -0.6054   -1.8474 H   0  0  0  0  0  0  0  0  0  0  0  0
    3.2765   -2.2392   -1.9438 H   0  0  0  0  0  0  0  0  0  0  0  0
    1.1298   -1.2559   -2.8345 H   0  0  0  0  0  0  0  0  0  0  0  0
    1.8382    0.3715   -2.6479 H   0  0  0  0  0  0  0  0  0  0  0  0
    4.6624   -1.3124    1.8734 H   0  0  0  0  0  0  0  0  0  0  0  0
    4.6366    0.3700    1.2609 H   0  0  0  0  0  0  0  0  0  0  0  0
    2.8922   -0.6645    3.5534 H   0  0  0  0  0  0  0  0  0  0  0  0
    4.3635    0.3050    3.7452 H   0  0  0  0  0  0  0  0  0  0  0  0
    2.9481    0.9955    2.9389 H   0  0  0  0  0  0  0  0  0  0  0  0
   -0.8551   -1.5145    2.3267 H   0  0  0  0  0  0  0  0  0  0  0  0
    0.6236   -2.0599    1.4594 H   0  0  0  0  0  0  0  0  0  0  0  0
   -1.9751    2.4524    0.8774 H   0  0  0  0  0  0  0  0  0  0  0  0
   -3.7436    2.2928    1.0102 H   0  0  0  0  0  0  0  0  0  0  0  0
   -2.7836    2.7211    3.2469 H   0  0  0  0  0  0  0  0  0  0  0  0
   -3.4448    1.0784    3.1899 H   0  0  0  0  0  0  0  0  0  0  0  0
   -1.6940    1.3367    3.0784 H   0  0  0  0  0  0  0  0  0  0  0  0
   -4.2453   -1.3286   -0.2711 H   0  0  0  0  0  0  0  0  0  0  0  0
   -5.0545   -0.7132   -1.7395 H   0  0  0  0  0  0  0  0  0  0  0  0
   -4.7942   -3.1782   -1.8751 H   0  0  0  0  0  0  0  0  0  0  0  0
   -3.8036   -2.3848   -3.1112 H   0  0  0  0  0  0  0  0  0  0  0  0
   -3.0440   -3.0250   -1.6481 H   0  0  0  0  0  0  0  0  0  0  0  0
  1  2  1  0  0  0  0
  2  3  1  0  0  0  0
  3  4  2  0  0  0  0
  4  5  2  0  0  0  0
  4  6  2  0  0  0  0
  6  7  1  0  0  0  0
  7  8  1  0  0  0  0
  4  9  1  0  0  0  0
  9 10  1  0  0  0  0
 10 11  1  0  0  0  0
 11 12  1  0  0  0  0
 12 13  2  0  0  0  0
 12 14  2  0  0  0  0
 14 15  1  0  0  0  0
 15 16  1  0  0  0  0
 12 17  2  0  0  0  0
 17 18  1  0  0  0  0
 18 19  1  0  0  0  0
  1 20  1  0  0  0  0
  1 21  1  0  0  0  0
  1 22  1  0  0  0  0
  2 23  1  0  0  0  0
  2 24  1  0  0  0  0
  7 25  1  0  0  0  0
  7 26  1  0  0  0  0
  8 27  1  0  0  0  0
  8 28  1  0  0  0  0
  8 29  1  0  0  0  0
 10 30  1  0  0  0  0
 10 31  1  0  0  0  0
 15 32  1  0  0  0  0
 15 33  1  0  0  0  0
 16 34  1  0  0  0  0
 16 35  1  0  0  0  0
 16 36  1  0  0  0  0
 18 37  1  0  0  0  0
 18 38  1  0  0  0  0
 19 39  1  0  0  0  0
 19 40  1  0  0  0  0
 19 41  1  0  0  0  0
M  END
