 xtb: 6.7.1 (edcfbbe)
          04092505213D

 41 40  0     0  0            999 V2000
    1.9592   -0.5503   -3.4822 C   0  0  0  0  0  0  0  0  0  0  0  0
    2.2940   -1.2015   -2.1579 C   0  0  0  0  0  0  0  0  0  0  0  0
    2.6864   -0.1565   -1.2305 O   0  0  0  0  0  0  0  0  0  0  0  0
    2.6844   -0.3800    0.3300 P   0  0  0  0  0  0  0  0  0  0  0  0
    3.4809    1.1256    1.2886 S   0  0  0  0  0  0  0  0  0  0  0  0
    3.4267   -1.7799    0.4632 O   0  0  0  0  0  0  0  0  0  0  0  0
    4.0039   -2.2402    1.7005 C   0  0  0  0  0  0  0  0  0  0  0  0
    2.9576   -2.4909    2.7665 C   0  0  0  0  0  0  0  0  0  0  0  0
    0.6631   -0.8109    0.8248 S   0  0  0  0  0  0  0  0  0  0  0  0
    0.1878    0.9273    1.1218 C   0  0  0  0  0  0  0  0  0  0  0  0
   -1.5569    1.0507    1.5187 S   0  0  0  0  0  0  0  0  0  0  0  0
   -2.3311    0.8971   -0.4814 P   0  0  0  0  0  0  0  0  0  0  0  0
   -1.0296    1.1407   -1.9195 S   0  0  0  0  0  0  0  0  0  0  0  0
   -3.4446    2.0022   -0.5636 O   0  0  0  0  0  0  0  0  0  0  0  0
   -4.5301    2.1187    0.3922 C   0  0  0  0  0  0  0  0  0  0  0  0
   -5.7811    1.4429   -0.1300 C   0  0  0  0  0  0  0  0  0  0  0  0
   -3.1914   -0.4409   -0.4620 O   0  0  0  0  0  0  0  0  0  0  0  0
   -2.6656   -1.7573   -0.2131 C   0  0  0  0  0  0  0  0  0  0  0  0
   -2.0037   -2.3407   -1.4452 C   0  0  0  0  0  0  0  0  0  0  0  0
    1.6962   -1.3198   -4.2005 H   0  0  0  0  0  0  0  0  0  0  0  0
    1.1196    0.1316   -3.3641 H   0  0  0  0  0  0  0  0  0  0  0  0
    2.8140    0.0110   -3.8479 H   0  0  0  0  0  0  0  0  0  0  0  0
    3.1322   -1.8949   -2.2474 H   0  0  0  0  0  0  0  0  0  0  0  0
    1.4310   -1.7295   -1.7411 H   0  0  0  0  0  0  0  0  0  0  0  0
    4.5196   -3.1586    1.4165 H   0  0  0  0  0  0  0  0  0  0  0  0
    4.7288   -1.4941    2.0395 H   0  0  0  0  0  0  0  0  0  0  0  0
    2.5106   -1.5483    3.0788 H   0  0  0  0  0  0  0  0  0  0  0  0
    2.1756   -3.1427    2.3852 H   0  0  0  0  0  0  0  0  0  0  0  0
    3.4288   -2.9560    3.6264 H   0  0  0  0  0  0  0  0  0  0  0  0
    0.3986    1.5050    0.2188 H   0  0  0  0  0  0  0  0  0  0  0  0
    0.7483    1.3102    1.9728 H   0  0  0  0  0  0  0  0  0  0  0  0
   -4.2096    1.6889    1.3451 H   0  0  0  0  0  0  0  0  0  0  0  0
   -4.6763    3.1943    0.5051 H   0  0  0  0  0  0  0  0  0  0  0  0
   -6.0567    1.8651   -1.0925 H   0  0  0  0  0  0  0  0  0  0  0  0
   -5.6128    0.3766   -0.2513 H   0  0  0  0  0  0  0  0  0  0  0  0
   -6.5901    1.6017    0.5761 H   0  0  0  0  0  0  0  0  0  0  0  0
   -1.9596   -1.7103    0.6225 H   0  0  0  0  0  0  0  0  0  0  0  0
   -3.5415   -2.3392    0.0795 H   0  0  0  0  0  0  0  0  0  0  0  0
   -2.7050   -2.3633   -2.2748 H   0  0  0  0  0  0  0  0  0  0  0  0
   -1.1475   -1.7353   -1.7338 H   0  0  0  0  0  0  0  0  0  0  0  0
   -1.6680   -3.3489   -1.2266 H   0  0  0  0  0  0  0  0  0  0  0  0
  1  2  1  0  0  0  0
  2  3  1  0  0  0  0
  3  4  2  0  0  0  0
  4  5  2  0  0  0  0
  4  6  2  0  0  0  0
  6  7  1  0  0  0  0
  7  8  1  0  0  0  0
  4  9  1  0  0  0  0
  9 10  1  0  0  0  0
 10 11  1  0  0  0  0
 11 12  1  0  0  0  0
 12 13  2  0  0  0  0
 12 14  2  0  0  0  0
 14 15  1  0  0  0  0
 15 16  1  0  0  0  0
 12 17  2  0  0  0  0
 17 18  1  0  0  0  0
 18 19  1  0  0  0  0
  1 20  1  0  0  0  0
  1 21  1  0  0  0  0
  1 22  1  0  0  0  0
  2 23  1  0  0  0  0
  2 24  1  0  0  0  0
  7 25  1  0  0  0  0
  7 26  1  0  0  0  0
  8 27  1  0  0  0  0
  8 28  1  0  0  0  0
  8 29  1  0  0  0  0
 10 30  1  0  0  0  0
 10 31  1  0  0  0  0
 15 32  1  0  0  0  0
 15 33  1  0  0  0  0
 16 34  1  0  0  0  0
 16 35  1  0  0  0  0
 16 36  1  0  0  0  0
 18 37  1  0  0  0  0
 18 38  1  0  0  0  0
 19 39  1  0  0  0  0
 19 40  1  0  0  0  0
 19 41  1  0  0  0  0
M  END
