 xtb: 6.7.1 (edcfbbe)
          04092507313D

 38 37  0     0  0            999 V2000
    4.9612    0.4665   -1.1539 C   0  0  0  0  0  0  0  0  0  0  0  0
    4.5477   -0.9395   -1.5561 C   0  0  0  0  0  0  0  0  0  0  0  0
    3.1145   -1.0910   -1.5400 O   0  0  0  0  0  0  0  0  0  0  0  0
    2.5226   -1.3464   -0.3895 C   0  0  0  0  0  0  0  0  0  0  0  0
    3.0963   -1.4841    0.6658 O   0  0  0  0  0  0  0  0  0  0  0  0
    1.0191   -1.4894   -0.5633 C   0  0  0  0  0  0  0  0  0  0  0  0
    0.4201   -0.2334   -1.2001 C   0  0  0  0  0  0  0  0  0  0  0  0
    0.9038   -0.0372   -2.1602 H   0  0  0  0  0  0  0  0  0  0  0  0
    0.5846    0.9601   -0.2815 C   0  0  0  0  0  0  0  0  0  0  0  0
   -0.3708    1.5437    0.1953 O   0  0  0  0  0  0  0  0  0  0  0  0
    1.8337    1.2605   -0.0733 O   0  0  0  0  0  0  0  0  0  0  0  0
    2.1415    2.2662    0.9194 C   0  0  0  0  0  0  0  0  0  0  0  0
    2.1836    1.6360    2.3015 C   0  0  0  0  0  0  0  0  0  0  0  0
   -1.3543   -0.4252   -1.5594 S   0  0  0  0  0  0  0  0  0  0  0  0
   -2.2225   -0.0920    0.3398 P   0  0  0  0  0  0  0  0  0  0  0  0
   -1.4038   -0.5108    2.0708 S   0  0  0  0  0  0  0  0  0  0  0  0
   -3.0154    1.2942    0.3885 O   0  0  0  0  0  0  0  0  0  0  0  0
   -3.6589    1.8342   -0.7777 C   0  0  0  0  0  0  0  0  0  0  0  0
   -3.3938   -1.1633   -0.0144 O   0  0  0  0  0  0  0  0  0  0  0  0
   -4.4011   -1.4768    0.9472 C   0  0  0  0  0  0  0  0  0  0  0  0
    6.0363    0.5672   -1.2603 H   0  0  0  0  0  0  0  0  0  0  0  0
    4.4661    1.1982   -1.7861 H   0  0  0  0  0  0  0  0  0  0  0  0
    4.6888    0.6497   -0.1178 H   0  0  0  0  0  0  0  0  0  0  0  0
    4.9832   -1.6776   -0.8766 H   0  0  0  0  0  0  0  0  0  0  0  0
    4.8276   -1.1588   -2.5865 H   0  0  0  0  0  0  0  0  0  0  0  0
    0.5736   -1.6808    0.4159 H   0  0  0  0  0  0  0  0  0  0  0  0
    0.8246   -2.3385   -1.2203 H   0  0  0  0  0  0  0  0  0  0  0  0
    3.1170    2.6503    0.6219 H   0  0  0  0  0  0  0  0  0  0  0  0
    1.3841    3.0524    0.8690 H   0  0  0  0  0  0  0  0  0  0  0  0
    2.5148    2.3715    3.0265 H   0  0  0  0  0  0  0  0  0  0  0  0
    1.1947    1.2791    2.5860 H   0  0  0  0  0  0  0  0  0  0  0  0
    2.8651    0.7882    2.3068 H   0  0  0  0  0  0  0  0  0  0  0  0
   -4.1068    1.0376   -1.3738 H   0  0  0  0  0  0  0  0  0  0  0  0
   -2.9248    2.3763   -1.3728 H   0  0  0  0  0  0  0  0  0  0  0  0
   -4.4212    2.5125   -0.4021 H   0  0  0  0  0  0  0  0  0  0  0  0
   -5.0003   -0.5948    1.1786 H   0  0  0  0  0  0  0  0  0  0  0  0
   -3.9393   -1.8497    1.8634 H   0  0  0  0  0  0  0  0  0  0  0  0
   -5.0141   -2.2483    0.4883 H   0  0  0  0  0  0  0  0  0  0  0  0
  1  2  1  0  0  0  0
  2  3  1  0  0  0  0
  3  4  1  0  0  0  0
  4  5  2  0  0  0  0
  4  6  1  0  0  0  0
  6  7  1  0  0  0  0
  7  8  1  0  0  0  0
  7  9  1  0  0  0  0
  9 10  2  0  0  0  0
  9 11  4  0  0  0  0
 11 12  1  0  0  0  0
 12 13  1  0  0  0  0
  7 14  1  0  0  0  0
 14 15  1  0  0  0  0
 15 16  2  0  0  0  0
 15 17  1  0  0  0  0
 17 18  1  0  0  0  0
 15 19  1  0  0  0  0
 19 20  1  0  0  0  0
  1 21  1  0  0  0  0
  1 22  1  0  0  0  0
  1 23  1  0  0  0  0
  2 24  1  0  0  0  0
  2 25  1  0  0  0  0
  6 26  1  0  0  0  0
  6 27  1  0  0  0  0
 12 28  1  0  0  0  0
 12 29  1  0  0  0  0
 13 30  1  0  0  0  0
 13 31  1  0  0  0  0
 13 32  1  0  0  0  0
 18 33  1  0  0  0  0
 18 34  1  0  0  0  0
 18 35  1  0  0  0  0
 20 36  1  0  0  0  0
 20 37  1  0  0  0  0
 20 38  1  0  0  0  0
M  END
