 xtb: 6.7.1 (edcfbbe)
          04092505213D

 41 40  0     0  0            999 V2000
    5.7020    1.4371   -0.2591 C   0  0  0  0  0  0  0  0  0  0  0  0
    4.4633    0.8237   -0.8791 C   0  0  0  0  0  0  0  0  0  0  0  0
    3.4898    0.6403    0.1714 O   0  0  0  0  0  0  0  0  0  0  0  0
    1.9743    0.3309   -0.1695 P   0  0  0  0  0  0  0  0  0  0  0  0
    1.0900    1.5972   -1.3768 S   0  0  0  0  0  0  0  0  0  0  0  0
    1.2901    0.3219    1.2489 O   0  0  0  0  0  0  0  0  0  0  0  0
    1.8926   -0.1283    2.4916 C   0  0  0  0  0  0  0  0  0  0  0  0
    2.3066   -1.5835    2.4566 C   0  0  0  0  0  0  0  0  0  0  0  0
    2.0369   -1.6502   -0.9493 S   0  0  0  0  0  0  0  0  0  0  0  0
    0.2792   -1.7982   -1.3151 C   0  0  0  0  0  0  0  0  0  0  0  0
   -0.7340   -1.9535    0.1983 S   0  0  0  0  0  0  0  0  0  0  0  0
   -2.1101   -0.3875   -0.0524 P   0  0  0  0  0  0  0  0  0  0  0  0
   -2.3553    0.2835   -1.8822 S   0  0  0  0  0  0  0  0  0  0  0  0
   -1.7872    0.7278    1.0406 O   0  0  0  0  0  0  0  0  0  0  0  0
   -1.5448    2.1166    0.7727 C   0  0  0  0  0  0  0  0  0  0  0  0
   -2.6459    2.9527    1.3938 C   0  0  0  0  0  0  0  0  0  0  0  0
   -3.3007   -1.1901    0.6270 O   0  0  0  0  0  0  0  0  0  0  0  0
   -4.4803   -0.5672    1.1721 C   0  0  0  0  0  0  0  0  0  0  0  0
   -5.4035   -0.0466    0.0885 C   0  0  0  0  0  0  0  0  0  0  0  0
    6.0963    0.7815    0.5115 H   0  0  0  0  0  0  0  0  0  0  0  0
    6.4522    1.5763   -1.0304 H   0  0  0  0  0  0  0  0  0  0  0  0
    5.4613    2.3996    0.1835 H   0  0  0  0  0  0  0  0  0  0  0  0
    4.6752   -0.1537   -1.3198 H   0  0  0  0  0  0  0  0  0  0  0  0
    4.0295    1.4750   -1.6447 H   0  0  0  0  0  0  0  0  0  0  0  0
    2.7453    0.5190    2.7024 H   0  0  0  0  0  0  0  0  0  0  0  0
    1.0998    0.0436    3.2217 H   0  0  0  0  0  0  0  0  0  0  0  0
    3.1194   -1.7325    1.7494 H   0  0  0  0  0  0  0  0  0  0  0  0
    2.6429   -1.8739    3.4472 H   0  0  0  0  0  0  0  0  0  0  0  0
    1.4668   -2.2117    2.1668 H   0  0  0  0  0  0  0  0  0  0  0  0
    0.1627   -2.7094   -1.8959 H   0  0  0  0  0  0  0  0  0  0  0  0
   -0.0622   -0.9253   -1.8805 H   0  0  0  0  0  0  0  0  0  0  0  0
   -0.5689    2.3463    1.2059 H   0  0  0  0  0  0  0  0  0  0  0  0
   -1.4948    2.2717   -0.3106 H   0  0  0  0  0  0  0  0  0  0  0  0
   -2.4136    4.0027    1.2485 H   0  0  0  0  0  0  0  0  0  0  0  0
   -3.5988    2.7323    0.9179 H   0  0  0  0  0  0  0  0  0  0  0  0
   -2.7194    2.7443    2.4576 H   0  0  0  0  0  0  0  0  0  0  0  0
   -4.9510   -1.3685    1.7443 H   0  0  0  0  0  0  0  0  0  0  0  0
   -4.1720    0.2361    1.8465 H   0  0  0  0  0  0  0  0  0  0  0  0
   -5.6727   -0.8494   -0.5932 H   0  0  0  0  0  0  0  0  0  0  0  0
   -6.3030    0.3566    0.5432 H   0  0  0  0  0  0  0  0  0  0  0  0
   -4.9113    0.7368   -0.4862 H   0  0  0  0  0  0  0  0  0  0  0  0
  1  2  1  0  0  0  0
  2  3  1  0  0  0  0
  3  4  2  0  0  0  0
  4  5  2  0  0  0  0
  4  6  2  0  0  0  0
  6  7  1  0  0  0  0
  7  8  1  0  0  0  0
  4  9  1  0  0  0  0
  9 10  1  0  0  0  0
 10 11  1  0  0  0  0
 11 12  1  0  0  0  0
 12 13  2  0  0  0  0
 12 14  2  0  0  0  0
 14 15  1  0  0  0  0
 15 16  1  0  0  0  0
 12 17  2  0  0  0  0
 17 18  1  0  0  0  0
 18 19  1  0  0  0  0
  1 20  1  0  0  0  0
  1 21  1  0  0  0  0
  1 22  1  0  0  0  0
  2 23  1  0  0  0  0
  2 24  1  0  0  0  0
  7 25  1  0  0  0  0
  7 26  1  0  0  0  0
  8 27  1  0  0  0  0
  8 28  1  0  0  0  0
  8 29  1  0  0  0  0
 10 30  1  0  0  0  0
 10 31  1  0  0  0  0
 15 32  1  0  0  0  0
 15 33  1  0  0  0  0
 16 34  1  0  0  0  0
 16 35  1  0  0  0  0
 16 36  1  0  0  0  0
 18 37  1  0  0  0  0
 18 38  1  0  0  0  0
 19 39  1  0  0  0  0
 19 40  1  0  0  0  0
 19 41  1  0  0  0  0
M  END
