 xtb: 6.7.1 (edcfbbe)
          04092505203D

 41 40  0     0  0            999 V2000
    2.5104   -1.7019    2.8688 C   0  0  0  0  0  0  0  0  0  0  0  0
    1.6513   -0.4625    2.7323 C   0  0  0  0  0  0  0  0  0  0  0  0
    1.1791   -0.2650    1.3830 O   0  0  0  0  0  0  0  0  0  0  0  0
    2.1015   -0.0873    0.1087 P   0  0  0  0  0  0  0  0  0  0  0  0
    2.9049   -1.6920   -0.6932 S   0  0  0  0  0  0  0  0  0  0  0  0
    3.1409    1.0046    0.6107 O   0  0  0  0  0  0  0  0  0  0  0  0
    4.3690    1.2712   -0.0893 C   0  0  0  0  0  0  0  0  0  0  0  0
    4.1267    1.9788   -1.4064 C   0  0  0  0  0  0  0  0  0  0  0  0
    0.7581    0.9560   -1.1575 S   0  0  0  0  0  0  0  0  0  0  0  0
   -0.0472   -0.5102   -1.8447 C   0  0  0  0  0  0  0  0  0  0  0  0
   -0.9238   -1.4737   -0.5866 S   0  0  0  0  0  0  0  0  0  0  0  0
   -2.3412    0.0255   -0.0886 P   0  0  0  0  0  0  0  0  0  0  0  0
   -2.9766    1.1291   -1.5847 S   0  0  0  0  0  0  0  0  0  0  0  0
   -1.7146    0.8502    1.1100 O   0  0  0  0  0  0  0  0  0  0  0  0
   -1.6509    2.2928    1.1583 C   0  0  0  0  0  0  0  0  0  0  0  0
   -0.4079    2.7103    1.9168 C   0  0  0  0  0  0  0  0  0  0  0  0
   -3.4223   -0.7827    0.7447 O   0  0  0  0  0  0  0  0  0  0  0  0
   -4.0353   -2.0211    0.3410 C   0  0  0  0  0  0  0  0  0  0  0  0
   -4.6790   -1.9405   -1.0281 C   0  0  0  0  0  0  0  0  0  0  0  0
    3.4266   -1.5907    2.2900 H   0  0  0  0  0  0  0  0  0  0  0  0
    2.7666   -1.8507    3.9131 H   0  0  0  0  0  0  0  0  0  0  0  0
    1.9760   -2.5751    2.5008 H   0  0  0  0  0  0  0  0  0  0  0  0
    2.2005    0.4313    3.0369 H   0  0  0  0  0  0  0  0  0  0  0  0
    0.7290   -0.5496    3.3097 H   0  0  0  0  0  0  0  0  0  0  0  0
    4.9377    1.8915    0.6046 H   0  0  0  0  0  0  0  0  0  0  0  0
    4.8868    0.3207   -0.2538 H   0  0  0  0  0  0  0  0  0  0  0  0
    3.5211    2.8684   -1.2536 H   0  0  0  0  0  0  0  0  0  0  0  0
    5.0791    2.2606   -1.8436 H   0  0  0  0  0  0  0  0  0  0  0  0
    3.6051    1.3150   -2.0946 H   0  0  0  0  0  0  0  0  0  0  0  0
    0.7010   -1.1731   -2.2791 H   0  0  0  0  0  0  0  0  0  0  0  0
   -0.7539   -0.1540   -2.5940 H   0  0  0  0  0  0  0  0  0  0  0  0
   -1.6479    2.6851    0.1356 H   0  0  0  0  0  0  0  0  0  0  0  0
   -2.5546    2.6361    1.6676 H   0  0  0  0  0  0  0  0  0  0  0  0
   -0.3980    3.7921    2.0020 H   0  0  0  0  0  0  0  0  0  0  0  0
   -0.4128    2.2687    2.9091 H   0  0  0  0  0  0  0  0  0  0  0  0
    0.4869    2.3881    1.3901 H   0  0  0  0  0  0  0  0  0  0  0  0
   -3.2726   -2.8047    0.3651 H   0  0  0  0  0  0  0  0  0  0  0  0
   -4.7773   -2.2038    1.1204 H   0  0  0  0  0  0  0  0  0  0  0  0
   -3.9188   -1.7879   -1.7930 H   0  0  0  0  0  0  0  0  0  0  0  0
   -5.2059   -2.8667   -1.2333 H   0  0  0  0  0  0  0  0  0  0  0  0
   -5.3799   -1.1101   -1.0687 H   0  0  0  0  0  0  0  0  0  0  0  0
  1  2  1  0  0  0  0
  2  3  1  0  0  0  0
  3  4  2  0  0  0  0
  4  5  2  0  0  0  0
  4  6  2  0  0  0  0
  6  7  1  0  0  0  0
  7  8  1  0  0  0  0
  4  9  1  0  0  0  0
  9 10  1  0  0  0  0
 10 11  1  0  0  0  0
 11 12  1  0  0  0  0
 12 13  2  0  0  0  0
 12 14  2  0  0  0  0
 14 15  1  0  0  0  0
 15 16  1  0  0  0  0
 12 17  2  0  0  0  0
 17 18  1  0  0  0  0
 18 19  1  0  0  0  0
  1 20  1  0  0  0  0
  1 21  1  0  0  0  0
  1 22  1  0  0  0  0
  2 23  1  0  0  0  0
  2 24  1  0  0  0  0
  7 25  1  0  0  0  0
  7 26  1  0  0  0  0
  8 27  1  0  0  0  0
  8 28  1  0  0  0  0
  8 29  1  0  0  0  0
 10 30  1  0  0  0  0
 10 31  1  0  0  0  0
 15 32  1  0  0  0  0
 15 33  1  0  0  0  0
 16 34  1  0  0  0  0
 16 35  1  0  0  0  0
 16 36  1  0  0  0  0
 18 37  1  0  0  0  0
 18 38  1  0  0  0  0
 19 39  1  0  0  0  0
 19 40  1  0  0  0  0
 19 41  1  0  0  0  0
M  END
