 xtb: 6.7.1 (edcfbbe)
          04092505203D

 41 40  0     0  0            999 V2000
    4.0291   -0.9969   -2.6708 C   0  0  0  0  0  0  0  0  0  0  0  0
    4.2979   -1.5741   -1.2962 C   0  0  0  0  0  0  0  0  0  0  0  0
    3.0883   -1.7390   -0.5362 O   0  0  0  0  0  0  0  0  0  0  0  0
    2.2479   -0.5001    0.0027 P   0  0  0  0  0  0  0  0  0  0  0  0
    3.3473    1.0018    0.6318 S   0  0  0  0  0  0  0  0  0  0  0  0
    1.3122   -1.2084    1.0662 O   0  0  0  0  0  0  0  0  0  0  0  0
    1.7695   -1.5134    2.4060 C   0  0  0  0  0  0  0  0  0  0  0  0
    1.3535   -0.4254    3.3761 C   0  0  0  0  0  0  0  0  0  0  0  0
    0.8254   -0.0900   -1.5005 S   0  0  0  0  0  0  0  0  0  0  0  0
    0.2840    1.4987   -0.8114 C   0  0  0  0  0  0  0  0  0  0  0  0
   -0.7263    1.3158    0.6754 S   0  0  0  0  0  0  0  0  0  0  0  0
   -2.4058    0.4355   -0.3069 P   0  0  0  0  0  0  0  0  0  0  0  0
   -2.7999    1.1129   -2.0966 S   0  0  0  0  0  0  0  0  0  0  0  0
   -3.5741    0.5587    0.7662 O   0  0  0  0  0  0  0  0  0  0  0  0
   -4.4368    1.7089    0.8485 C   0  0  0  0  0  0  0  0  0  0  0  0
   -3.6911    2.9635    1.2537 C   0  0  0  0  0  0  0  0  0  0  0  0
   -2.1358   -1.1181   -0.3077 O   0  0  0  0  0  0  0  0  0  0  0  0
   -1.9765   -1.8936    0.9068 C   0  0  0  0  0  0  0  0  0  0  0  0
   -1.3549   -3.2204    0.5249 C   0  0  0  0  0  0  0  0  0  0  0  0
    3.2777   -1.5876   -3.1892 H   0  0  0  0  0  0  0  0  0  0  0  0
    3.6667    0.0266   -2.5804 H   0  0  0  0  0  0  0  0  0  0  0  0
    4.9484   -0.9949   -3.2476 H   0  0  0  0  0  0  0  0  0  0  0  0
    4.9747   -0.9239   -0.7324 H   0  0  0  0  0  0  0  0  0  0  0  0
    4.7113   -2.5818   -1.3545 H   0  0  0  0  0  0  0  0  0  0  0  0
    1.2969   -2.4673    2.6458 H   0  0  0  0  0  0  0  0  0  0  0  0
    2.8558   -1.6345    2.3963 H   0  0  0  0  0  0  0  0  0  0  0  0
    1.8371    0.5144    3.1189 H   0  0  0  0  0  0  0  0  0  0  0  0
    0.2775   -0.2775    3.3428 H   0  0  0  0  0  0  0  0  0  0  0  0
    1.6469   -0.7118    4.3809 H   0  0  0  0  0  0  0  0  0  0  0  0
   -0.3024    1.9893   -1.5884 H   0  0  0  0  0  0  0  0  0  0  0  0
    1.1559    2.0909   -0.5325 H   0  0  0  0  0  0  0  0  0  0  0  0
   -4.9193    1.8459   -0.1238 H   0  0  0  0  0  0  0  0  0  0  0  0
   -5.1783    1.4213    1.5952 H   0  0  0  0  0  0  0  0  0  0  0  0
   -3.1171    2.7890    2.1603 H   0  0  0  0  0  0  0  0  0  0  0  0
   -3.0106    3.2656    0.4591 H   0  0  0  0  0  0  0  0  0  0  0  0
   -4.4047    3.7628    1.4262 H   0  0  0  0  0  0  0  0  0  0  0  0
   -1.3361   -1.3340    1.5945 H   0  0  0  0  0  0  0  0  0  0  0  0
   -2.9643   -2.0214    1.3537 H   0  0  0  0  0  0  0  0  0  0  0  0
   -0.3633   -3.0619    0.1080 H   0  0  0  0  0  0  0  0  0  0  0  0
   -1.2798   -3.8471    1.4078 H   0  0  0  0  0  0  0  0  0  0  0  0
   -1.9706   -3.7172   -0.2195 H   0  0  0  0  0  0  0  0  0  0  0  0
  1  2  1  0  0  0  0
  2  3  1  0  0  0  0
  3  4  2  0  0  0  0
  4  5  2  0  0  0  0
  4  6  2  0  0  0  0
  6  7  1  0  0  0  0
  7  8  1  0  0  0  0
  4  9  1  0  0  0  0
  9 10  1  0  0  0  0
 10 11  1  0  0  0  0
 11 12  1  0  0  0  0
 12 13  2  0  0  0  0
 12 14  2  0  0  0  0
 14 15  1  0  0  0  0
 15 16  1  0  0  0  0
 12 17  2  0  0  0  0
 17 18  1  0  0  0  0
 18 19  1  0  0  0  0
  1 20  1  0  0  0  0
  1 21  1  0  0  0  0
  1 22  1  0  0  0  0
  2 23  1  0  0  0  0
  2 24  1  0  0  0  0
  7 25  1  0  0  0  0
  7 26  1  0  0  0  0
  8 27  1  0  0  0  0
  8 28  1  0  0  0  0
  8 29  1  0  0  0  0
 10 30  1  0  0  0  0
 10 31  1  0  0  0  0
 15 32  1  0  0  0  0
 15 33  1  0  0  0  0
 16 34  1  0  0  0  0
 16 35  1  0  0  0  0
 16 36  1  0  0  0  0
 18 37  1  0  0  0  0
 18 38  1  0  0  0  0
 19 39  1  0  0  0  0
 19 40  1  0  0  0  0
 19 41  1  0  0  0  0
M  END
