 xtb: 6.7.1 (edcfbbe)
          04092505213D

 41 40  0     0  0            999 V2000
    4.6636   -2.9995   -1.1573 C   0  0  0  0  0  0  0  0  0  0  0  0
    3.3167   -2.3133   -1.0628 C   0  0  0  0  0  0  0  0  0  0  0  0
    3.5550   -0.9176   -0.7481 O   0  0  0  0  0  0  0  0  0  0  0  0
    2.4022    0.0363   -0.2230 P   0  0  0  0  0  0  0  0  0  0  0  0
    3.0853    1.8388    0.0844 S   0  0  0  0  0  0  0  0  0  0  0  0
    1.7630   -0.7044    1.0469 O   0  0  0  0  0  0  0  0  0  0  0  0
    2.2026   -0.4343    2.3976 C   0  0  0  0  0  0  0  0  0  0  0  0
    1.1909    0.4309    3.1211 C   0  0  0  0  0  0  0  0  0  0  0  0
    0.8455   -0.2293   -1.6267 S   0  0  0  0  0  0  0  0  0  0  0  0
    0.0042    1.3440   -1.2994 C   0  0  0  0  0  0  0  0  0  0  0  0
   -0.8184    1.3910    0.3029 S   0  0  0  0  0  0  0  0  0  0  0  0
   -2.6053    0.3202   -0.2026 P   0  0  0  0  0  0  0  0  0  0  0  0
   -2.9371    0.1543   -2.1262 S   0  0  0  0  0  0  0  0  0  0  0  0
   -3.8045    1.0822    0.4726 O   0  0  0  0  0  0  0  0  0  0  0  0
   -4.1173    1.1026    1.8872 C   0  0  0  0  0  0  0  0  0  0  0  0
   -3.0482    1.7934    2.7065 C   0  0  0  0  0  0  0  0  0  0  0  0
   -2.5544   -1.0058    0.6795 O   0  0  0  0  0  0  0  0  0  0  0  0
   -1.5209   -2.0031    0.6390 C   0  0  0  0  0  0  0  0  0  0  0  0
   -1.5859   -2.8504   -0.6159 C   0  0  0  0  0  0  0  0  0  0  0  0
    5.2693   -2.5226   -1.9223 H   0  0  0  0  0  0  0  0  0  0  0  0
    5.1869   -2.9335   -0.2076 H   0  0  0  0  0  0  0  0  0  0  0  0
    4.5142   -4.0429   -1.4153 H   0  0  0  0  0  0  0  0  0  0  0  0
    2.6957   -2.7490   -0.2760 H   0  0  0  0  0  0  0  0  0  0  0  0
    2.7764   -2.3550   -2.0119 H   0  0  0  0  0  0  0  0  0  0  0  0
    2.2975   -1.4154    2.8663 H   0  0  0  0  0  0  0  0  0  0  0  0
    3.1799    0.0561    2.3659 H   0  0  0  0  0  0  0  0  0  0  0  0
    0.2160   -0.0483    3.1166 H   0  0  0  0  0  0  0  0  0  0  0  0
    1.5154    0.5771    4.1462 H   0  0  0  0  0  0  0  0  0  0  0  0
    1.1080    1.3986    2.6311 H   0  0  0  0  0  0  0  0  0  0  0  0
   -0.7354    1.4662   -2.0918 H   0  0  0  0  0  0  0  0  0  0  0  0
    0.7384    2.1493   -1.3014 H   0  0  0  0  0  0  0  0  0  0  0  0
   -5.0632    1.6451    1.9230 H   0  0  0  0  0  0  0  0  0  0  0  0
   -4.2659    0.0737    2.2191 H   0  0  0  0  0  0  0  0  0  0  0  0
   -2.8668    2.7956    2.3272 H   0  0  0  0  0  0  0  0  0  0  0  0
   -3.3766    1.8558    3.7393 H   0  0  0  0  0  0  0  0  0  0  0  0
   -2.1153    1.2340    2.6648 H   0  0  0  0  0  0  0  0  0  0  0  0
   -0.5470   -1.5122    0.7277 H   0  0  0  0  0  0  0  0  0  0  0  0
   -1.7097   -2.6046    1.5306 H   0  0  0  0  0  0  0  0  0  0  0  0
   -2.5811   -3.2716   -0.7323 H   0  0  0  0  0  0  0  0  0  0  0  0
   -1.3587   -2.2504   -1.4950 H   0  0  0  0  0  0  0  0  0  0  0  0
   -0.8612   -3.6550   -0.5432 H   0  0  0  0  0  0  0  0  0  0  0  0
  1  2  1  0  0  0  0
  2  3  1  0  0  0  0
  3  4  2  0  0  0  0
  4  5  2  0  0  0  0
  4  6  1  0  0  0  0
  6  7  1  0  0  0  0
  7  8  1  0  0  0  0
  4  9  1  0  0  0  0
  9 10  1  0  0  0  0
 10 11  1  0  0  0  0
 11 12  1  0  0  0  0
 12 13  2  0  0  0  0
 12 14  2  0  0  0  0
 14 15  1  0  0  0  0
 15 16  1  0  0  0  0
 12 17  2  0  0  0  0
 17 18  1  0  0  0  0
 18 19  1  0  0  0  0
  1 20  1  0  0  0  0
  1 21  1  0  0  0  0
  1 22  1  0  0  0  0
  2 23  1  0  0  0  0
  2 24  1  0  0  0  0
  7 25  1  0  0  0  0
  7 26  1  0  0  0  0
  8 27  1  0  0  0  0
  8 28  1  0  0  0  0
  8 29  1  0  0  0  0
 10 30  1  0  0  0  0
 10 31  1  0  0  0  0
 15 32  1  0  0  0  0
 15 33  1  0  0  0  0
 16 34  1  0  0  0  0
 16 35  1  0  0  0  0
 16 36  1  0  0  0  0
 18 37  1  0  0  0  0
 18 38  1  0  0  0  0
 19 39  1  0  0  0  0
 19 40  1  0  0  0  0
 19 41  1  0  0  0  0
M  END
