 xtb: 6.7.1 (edcfbbe)
          04092505213D

 41 40  0     0  0            999 V2000
    5.7869   -0.4500   -0.7714 C   0  0  0  0  0  0  0  0  0  0  0  0
    4.4959    0.3416   -0.7240 C   0  0  0  0  0  0  0  0  0  0  0  0
    3.4700   -0.5169   -0.1830 O   0  0  0  0  0  0  0  0  0  0  0  0
    2.1065    0.0865    0.3624 P   0  0  0  0  0  0  0  0  0  0  0  0
    2.2886    1.5142    1.6829 S   0  0  0  0  0  0  0  0  0  0  0  0
    1.3677   -1.1864    0.9254 O   0  0  0  0  0  0  0  0  0  0  0  0
    1.3072   -2.4469    0.2101 C   0  0  0  0  0  0  0  0  0  0  0  0
    2.3712   -3.3958    0.7176 C   0  0  0  0  0  0  0  0  0  0  0  0
    1.1109    0.6245   -1.4485 S   0  0  0  0  0  0  0  0  0  0  0  0
   -0.0749    1.7880   -0.7134 C   0  0  0  0  0  0  0  0  0  0  0  0
   -1.0071    1.1111    0.6835 S   0  0  0  0  0  0  0  0  0  0  0  0
   -2.3879   -0.0900   -0.4246 P   0  0  0  0  0  0  0  0  0  0  0  0
   -1.6774   -1.5213   -1.5481 S   0  0  0  0  0  0  0  0  0  0  0  0
   -3.2504    0.9280   -1.2655 O   0  0  0  0  0  0  0  0  0  0  0  0
   -4.1458    1.9203   -0.6953 C   0  0  0  0  0  0  0  0  0  0  0  0
   -3.5235    3.3020   -0.7365 C   0  0  0  0  0  0  0  0  0  0  0  0
   -3.4024   -0.5660    0.7049 O   0  0  0  0  0  0  0  0  0  0  0  0
   -3.1946   -1.7715    1.4611 C   0  0  0  0  0  0  0  0  0  0  0  0
   -2.1319   -1.5961    2.5275 C   0  0  0  0  0  0  0  0  0  0  0  0
    6.0704   -0.7621    0.2298 H   0  0  0  0  0  0  0  0  0  0  0  0
    5.6611   -1.3306   -1.3948 H   0  0  0  0  0  0  0  0  0  0  0  0
    6.5709    0.1746   -1.1866 H   0  0  0  0  0  0  0  0  0  0  0  0
    4.1829    0.6586   -1.7225 H   0  0  0  0  0  0  0  0  0  0  0  0
    4.5869    1.2220   -0.0793 H   0  0  0  0  0  0  0  0  0  0  0  0
    0.3027   -2.8304    0.4015 H   0  0  0  0  0  0  0  0  0  0  0  0
    1.4121   -2.2568   -0.8615 H   0  0  0  0  0  0  0  0  0  0  0  0
    2.2648   -3.5325    1.7902 H   0  0  0  0  0  0  0  0  0  0  0  0
    2.2558   -4.3527    0.2185 H   0  0  0  0  0  0  0  0  0  0  0  0
    3.3605   -2.9973    0.5096 H   0  0  0  0  0  0  0  0  0  0  0  0
   -0.7527    2.0793   -1.5134 H   0  0  0  0  0  0  0  0  0  0  0  0
    0.4705    2.6439   -0.3180 H   0  0  0  0  0  0  0  0  0  0  0  0
   -5.0342    1.8694   -1.3268 H   0  0  0  0  0  0  0  0  0  0  0  0
   -4.4005    1.6264    0.3237 H   0  0  0  0  0  0  0  0  0  0  0  0
   -3.2001    3.5380   -1.7470 H   0  0  0  0  0  0  0  0  0  0  0  0
   -4.2673    4.0291   -0.4257 H   0  0  0  0  0  0  0  0  0  0  0  0
   -2.6713    3.3640   -0.0641 H   0  0  0  0  0  0  0  0  0  0  0  0
   -4.1711   -1.9769    1.9021 H   0  0  0  0  0  0  0  0  0  0  0  0
   -2.9247   -2.5736    0.7660 H   0  0  0  0  0  0  0  0  0  0  0  0
   -2.0803   -2.4951    3.1334 H   0  0  0  0  0  0  0  0  0  0  0  0
   -1.1569   -1.4212    2.0740 H   0  0  0  0  0  0  0  0  0  0  0  0
   -2.3705   -0.7472    3.1633 H   0  0  0  0  0  0  0  0  0  0  0  0
  1  2  1  0  0  0  0
  2  3  1  0  0  0  0
  3  4  2  0  0  0  0
  4  5  2  0  0  0  0
  4  6  2  0  0  0  0
  6  7  1  0  0  0  0
  7  8  1  0  0  0  0
  4  9  1  0  0  0  0
  9 10  1  0  0  0  0
 10 11  1  0  0  0  0
 11 12  1  0  0  0  0
 12 13  2  0  0  0  0
 12 14  2  0  0  0  0
 14 15  1  0  0  0  0
 15 16  1  0  0  0  0
 12 17  2  0  0  0  0
 17 18  1  0  0  0  0
 18 19  1  0  0  0  0
  1 20  1  0  0  0  0
  1 21  1  0  0  0  0
  1 22  1  0  0  0  0
  2 23  1  0  0  0  0
  2 24  1  0  0  0  0
  7 25  1  0  0  0  0
  7 26  1  0  0  0  0
  8 27  1  0  0  0  0
  8 28  1  0  0  0  0
  8 29  1  0  0  0  0
 10 30  1  0  0  0  0
 10 31  1  0  0  0  0
 15 32  1  0  0  0  0
 15 33  1  0  0  0  0
 16 34  1  0  0  0  0
 16 35  1  0  0  0  0
 16 36  1  0  0  0  0
 18 37  1  0  0  0  0
 18 38  1  0  0  0  0
 19 39  1  0  0  0  0
 19 40  1  0  0  0  0
 19 41  1  0  0  0  0
M  END
