 xtb: 6.7.1 (edcfbbe)
          04092505203D

 41 40  0     0  0            999 V2000
    1.6883    2.5978   -1.5699 C   0  0  0  0  0  0  0  0  0  0  0  0
    2.5636    1.3851   -1.3287 C   0  0  0  0  0  0  0  0  0  0  0  0
    1.7459    0.3251   -0.7823 O   0  0  0  0  0  0  0  0  0  0  0  0
    2.1840   -0.5266    0.4744 P   0  0  0  0  0  0  0  0  0  0  0  0
    2.9753    0.4754    1.9661 S   0  0  0  0  0  0  0  0  0  0  0  0
    3.1575   -1.5985   -0.1828 O   0  0  0  0  0  0  0  0  0  0  0  0
    4.0585   -2.4022    0.6009 C   0  0  0  0  0  0  0  0  0  0  0  0
    3.3203   -3.4058    1.4626 C   0  0  0  0  0  0  0  0  0  0  0  0
    0.3906   -1.5603    0.8446 S   0  0  0  0  0  0  0  0  0  0  0  0
   -0.3392   -0.3247    1.9531 C   0  0  0  0  0  0  0  0  0  0  0  0
   -0.8385    1.2071    1.1162 S   0  0  0  0  0  0  0  0  0  0  0  0
   -2.0405    0.4077   -0.4454 P   0  0  0  0  0  0  0  0  0  0  0  0
   -1.2301   -0.0299   -2.1799 S   0  0  0  0  0  0  0  0  0  0  0  0
   -3.2359    1.4524   -0.5638 O   0  0  0  0  0  0  0  0  0  0  0  0
   -3.1754    2.5968   -1.4275 C   0  0  0  0  0  0  0  0  0  0  0  0
   -2.2794    3.6758   -0.8539 C   0  0  0  0  0  0  0  0  0  0  0  0
   -2.7216   -0.7818    0.3448 O   0  0  0  0  0  0  0  0  0  0  0  0
   -3.2861   -1.9206   -0.3384 C   0  0  0  0  0  0  0  0  0  0  0  0
   -4.5567   -1.5537   -1.0753 C   0  0  0  0  0  0  0  0  0  0  0  0
    0.8522    2.3207   -2.2077 H   0  0  0  0  0  0  0  0  0  0  0  0
    1.3059    2.9755   -0.6238 H   0  0  0  0  0  0  0  0  0  0  0  0
    2.2723    3.3717   -2.0568 H   0  0  0  0  0  0  0  0  0  0  0  0
    3.3698    1.6121   -0.6229 H   0  0  0  0  0  0  0  0  0  0  0  0
    2.9866    1.0040   -2.2601 H   0  0  0  0  0  0  0  0  0  0  0  0
    4.6870   -2.8917   -0.1441 H   0  0  0  0  0  0  0  0  0  0  0  0
    4.6644   -1.7337    1.2210 H   0  0  0  0  0  0  0  0  0  0  0  0
    4.0378   -4.0629    1.9435 H   0  0  0  0  0  0  0  0  0  0  0  0
    2.7468   -2.8864    2.2294 H   0  0  0  0  0  0  0  0  0  0  0  0
    2.6386   -3.9959    0.8550 H   0  0  0  0  0  0  0  0  0  0  0  0
    0.3995   -0.0254    2.6983 H   0  0  0  0  0  0  0  0  0  0  0  0
   -1.2059   -0.7884    2.4159 H   0  0  0  0  0  0  0  0  0  0  0  0
   -2.8144    2.2721   -2.4097 H   0  0  0  0  0  0  0  0  0  0  0  0
   -4.2111    2.9304   -1.5048 H   0  0  0  0  0  0  0  0  0  0  0  0
   -1.2579    3.3036   -0.7768 H   0  0  0  0  0  0  0  0  0  0  0  0
   -2.2919    4.5440   -1.5046 H   0  0  0  0  0  0  0  0  0  0  0  0
   -2.6185    3.9599    0.1387 H   0  0  0  0  0  0  0  0  0  0  0  0
   -2.5358   -2.3186   -1.0293 H   0  0  0  0  0  0  0  0  0  0  0  0
   -3.4706   -2.6402    0.4602 H   0  0  0  0  0  0  0  0  0  0  0  0
   -4.3264   -0.8641   -1.8864 H   0  0  0  0  0  0  0  0  0  0  0  0
   -5.0042   -2.4511   -1.4907 H   0  0  0  0  0  0  0  0  0  0  0  0
   -5.2593   -1.0768   -0.3972 H   0  0  0  0  0  0  0  0  0  0  0  0
  1  2  1  0  0  0  0
  2  3  1  0  0  0  0
  3  4  2  0  0  0  0
  4  5  2  0  0  0  0
  4  6  2  0  0  0  0
  6  7  1  0  0  0  0
  7  8  1  0  0  0  0
  4  9  1  0  0  0  0
  9 10  1  0  0  0  0
 10 11  1  0  0  0  0
 11 12  1  0  0  0  0
 12 13  2  0  0  0  0
 12 14  2  0  0  0  0
 14 15  1  0  0  0  0
 15 16  1  0  0  0  0
 12 17  2  0  0  0  0
 17 18  1  0  0  0  0
 18 19  1  0  0  0  0
  1 20  1  0  0  0  0
  1 21  1  0  0  0  0
  1 22  1  0  0  0  0
  2 23  1  0  0  0  0
  2 24  1  0  0  0  0
  7 25  1  0  0  0  0
  7 26  1  0  0  0  0
  8 27  1  0  0  0  0
  8 28  1  0  0  0  0
  8 29  1  0  0  0  0
 10 30  1  0  0  0  0
 10 31  1  0  0  0  0
 15 32  1  0  0  0  0
 15 33  1  0  0  0  0
 16 34  1  0  0  0  0
 16 35  1  0  0  0  0
 16 36  1  0  0  0  0
 18 37  1  0  0  0  0
 18 38  1  0  0  0  0
 19 39  1  0  0  0  0
 19 40  1  0  0  0  0
 19 41  1  0  0  0  0
M  END
