 xtb: 6.7.1 (edcfbbe)
          04092505213D

 41 40  0     0  0            999 V2000
    4.5817   -0.4673   -2.3279 C   0  0  0  0  0  0  0  0  0  0  0  0
    4.4534   -0.4034   -0.8193 C   0  0  0  0  0  0  0  0  0  0  0  0
    3.4545    0.5747   -0.4388 O   0  0  0  0  0  0  0  0  0  0  0  0
    2.0231    0.1914    0.1244 P   0  0  0  0  0  0  0  0  0  0  0  0
    1.1034    1.8414    0.6256 S   0  0  0  0  0  0  0  0  0  0  0  0
    2.2318   -0.8744    1.2982 O   0  0  0  0  0  0  0  0  0  0  0  0
    2.2564   -0.4864    2.6854 C   0  0  0  0  0  0  0  0  0  0  0  0
    3.5616    0.1949    3.0416 C   0  0  0  0  0  0  0  0  0  0  0  0
    1.2772   -1.1206   -1.3535 S   0  0  0  0  0  0  0  0  0  0  0  0
   -0.0273   -1.9961   -0.4156 C   0  0  0  0  0  0  0  0  0  0  0  0
   -0.9241   -0.9844    0.7814 S   0  0  0  0  0  0  0  0  0  0  0  0
   -2.1641    0.0951   -0.5847 P   0  0  0  0  0  0  0  0  0  0  0  0
   -1.3269    1.0294   -2.0846 S   0  0  0  0  0  0  0  0  0  0  0  0
   -3.0639    0.9849    0.3721 O   0  0  0  0  0  0  0  0  0  0  0  0
   -2.6068    2.1972    1.0015 C   0  0  0  0  0  0  0  0  0  0  0  0
   -2.1893    1.9323    2.4338 C   0  0  0  0  0  0  0  0  0  0  0  0
   -3.1677   -0.9986   -1.1104 O   0  0  0  0  0  0  0  0  0  0  0  0
   -4.0369   -1.7866   -0.2559 C   0  0  0  0  0  0  0  0  0  0  0  0
   -5.4082   -1.1522   -0.1508 C   0  0  0  0  0  0  0  0  0  0  0  0
    3.6505   -0.8105   -2.7745 H   0  0  0  0  0  0  0  0  0  0  0  0
    4.8131    0.5180   -2.7231 H   0  0  0  0  0  0  0  0  0  0  0  0
    5.3782   -1.1567   -2.5893 H   0  0  0  0  0  0  0  0  0  0  0  0
    5.3778   -0.0487   -0.3601 H   0  0  0  0  0  0  0  0  0  0  0  0
    4.1799   -1.3754   -0.4014 H   0  0  0  0  0  0  0  0  0  0  0  0
    1.4091    0.1796    2.8752 H   0  0  0  0  0  0  0  0  0  0  0  0
    2.1213   -1.4237    3.2262 H   0  0  0  0  0  0  0  0  0  0  0  0
    3.6628    1.1144    2.4652 H   0  0  0  0  0  0  0  0  0  0  0  0
    3.5638    0.4399    4.0988 H   0  0  0  0  0  0  0  0  0  0  0  0
    4.4031   -0.4564    2.8201 H   0  0  0  0  0  0  0  0  0  0  0  0
    0.4345   -2.7999    0.1526 H   0  0  0  0  0  0  0  0  0  0  0  0
   -0.7162   -2.3839   -1.1647 H   0  0  0  0  0  0  0  0  0  0  0  0
   -1.7787    2.6176    0.4219 H   0  0  0  0  0  0  0  0  0  0  0  0
   -3.4622    2.8736    0.9544 H   0  0  0  0  0  0  0  0  0  0  0  0
   -1.9370    2.8758    2.9065 H   0  0  0  0  0  0  0  0  0  0  0  0
   -2.9982    1.4550    2.9792 H   0  0  0  0  0  0  0  0  0  0  0  0
   -1.3127    1.2887    2.4570 H   0  0  0  0  0  0  0  0  0  0  0  0
   -4.0882   -2.7595   -0.7481 H   0  0  0  0  0  0  0  0  0  0  0  0
   -3.5703   -1.8887    0.7274 H   0  0  0  0  0  0  0  0  0  0  0  0
   -6.0564   -1.8033    0.4275 H   0  0  0  0  0  0  0  0  0  0  0  0
   -5.3406   -0.1845    0.3384 H   0  0  0  0  0  0  0  0  0  0  0  0
   -5.8305   -1.0132   -1.1423 H   0  0  0  0  0  0  0  0  0  0  0  0
  1  2  1  0  0  0  0
  2  3  1  0  0  0  0
  3  4  2  0  0  0  0
  4  5  2  0  0  0  0
  4  6  1  0  0  0  0
  6  7  1  0  0  0  0
  7  8  1  0  0  0  0
  4  9  1  0  0  0  0
  9 10  1  0  0  0  0
 10 11  1  0  0  0  0
 11 12  1  0  0  0  0
 12 13  2  0  0  0  0
 12 14  2  0  0  0  0
 14 15  1  0  0  0  0
 15 16  1  0  0  0  0
 12 17  2  0  0  0  0
 17 18  1  0  0  0  0
 18 19  1  0  0  0  0
  1 20  1  0  0  0  0
  1 21  1  0  0  0  0
  1 22  1  0  0  0  0
  2 23  1  0  0  0  0
  2 24  1  0  0  0  0
  7 25  1  0  0  0  0
  7 26  1  0  0  0  0
  8 27  1  0  0  0  0
  8 28  1  0  0  0  0
  8 29  1  0  0  0  0
 10 30  1  0  0  0  0
 10 31  1  0  0  0  0
 15 32  1  0  0  0  0
 15 33  1  0  0  0  0
 16 34  1  0  0  0  0
 16 35  1  0  0  0  0
 16 36  1  0  0  0  0
 18 37  1  0  0  0  0
 18 38  1  0  0  0  0
 19 39  1  0  0  0  0
 19 40  1  0  0  0  0
 19 41  1  0  0  0  0
M  END
