 xtb: 6.7.1 (edcfbbe)
          04092505213D

 41 40  0     0  0            999 V2000
    1.8165   -0.8791    2.7098 C   0  0  0  0  0  0  0  0  0  0  0  0
    3.1327   -1.2971    2.0854 C   0  0  0  0  0  0  0  0  0  0  0  0
    3.5059   -0.4429    0.9940 O   0  0  0  0  0  0  0  0  0  0  0  0
    2.8185   -0.5158   -0.4401 P   0  0  0  0  0  0  0  0  0  0  0  0
    2.4521   -2.3328   -1.0702 S   0  0  0  0  0  0  0  0  0  0  0  0
    3.8843    0.2028   -1.3518 O   0  0  0  0  0  0  0  0  0  0  0  0
    4.1252    1.6275   -1.4452 C   0  0  0  0  0  0  0  0  0  0  0  0
    4.3767    2.2696   -0.0986 C   0  0  0  0  0  0  0  0  0  0  0  0
    1.1519    0.8248   -0.4024 S   0  0  0  0  0  0  0  0  0  0  0  0
   -0.1626   -0.2933   -0.9450 C   0  0  0  0  0  0  0  0  0  0  0  0
   -1.1989   -0.9253    0.4069 S   0  0  0  0  0  0  0  0  0  0  0  0
   -2.9099    0.3306    0.1816 P   0  0  0  0  0  0  0  0  0  0  0  0
   -2.9046    1.5336   -1.3732 S   0  0  0  0  0  0  0  0  0  0  0  0
   -3.1434    1.0116    1.5900 O   0  0  0  0  0  0  0  0  0  0  0  0
   -2.5583    2.2734    1.9585 C   0  0  0  0  0  0  0  0  0  0  0  0
   -1.0909    2.1394    2.3139 C   0  0  0  0  0  0  0  0  0  0  0  0
   -4.1397   -0.6615    0.2910 O   0  0  0  0  0  0  0  0  0  0  0  0
   -4.7136   -1.3066   -0.8582 C   0  0  0  0  0  0  0  0  0  0  0  0
   -3.7765   -2.3205   -1.4849 C   0  0  0  0  0  0  0  0  0  0  0  0
    1.8357    0.1800    2.9534 H   0  0  0  0  0  0  0  0  0  0  0  0
    0.9935   -1.0728    2.0231 H   0  0  0  0  0  0  0  0  0  0  0  0
    1.6522   -1.4536    3.6157 H   0  0  0  0  0  0  0  0  0  0  0  0
    3.0801   -2.3287    1.7219 H   0  0  0  0  0  0  0  0  0  0  0  0
    3.9594   -1.1964    2.7904 H   0  0  0  0  0  0  0  0  0  0  0  0
    5.0006    1.6884   -2.0935 H   0  0  0  0  0  0  0  0  0  0  0  0
    3.2650    2.0861   -1.9399 H   0  0  0  0  0  0  0  0  0  0  0  0
    5.1882    1.7619    0.4158 H   0  0  0  0  0  0  0  0  0  0  0  0
    4.6393    3.3125   -0.2467 H   0  0  0  0  0  0  0  0  0  0  0  0
    3.4789    2.2146    0.5145 H   0  0  0  0  0  0  0  0  0  0  0  0
    0.2987   -1.1565   -1.4283 H   0  0  0  0  0  0  0  0  0  0  0  0
   -0.7962    0.2689   -1.6337 H   0  0  0  0  0  0  0  0  0  0  0  0
   -2.6973    2.9801    1.1335 H   0  0  0  0  0  0  0  0  0  0  0  0
   -3.1499    2.5917    2.8184 H   0  0  0  0  0  0  0  0  0  0  0  0
   -0.5034    1.9168    1.4242 H   0  0  0  0  0  0  0  0  0  0  0  0
   -0.7396    3.0749    2.7374 H   0  0  0  0  0  0  0  0  0  0  0  0
   -0.9545    1.3410    3.0390 H   0  0  0  0  0  0  0  0  0  0  0  0
   -5.6128   -1.7836   -0.4657 H   0  0  0  0  0  0  0  0  0  0  0  0
   -4.9910   -0.5378   -1.5869 H   0  0  0  0  0  0  0  0  0  0  0  0
   -4.3093   -2.8747   -2.2512 H   0  0  0  0  0  0  0  0  0  0  0  0
   -2.9276   -1.8159   -1.9450 H   0  0  0  0  0  0  0  0  0  0  0  0
   -3.4080   -3.0122   -0.7313 H   0  0  0  0  0  0  0  0  0  0  0  0
  1  2  1  0  0  0  0
  2  3  1  0  0  0  0
  3  4  2  0  0  0  0
  4  5  2  0  0  0  0
  4  6  2  0  0  0  0
  6  7  1  0  0  0  0
  7  8  1  0  0  0  0
  4  9  1  0  0  0  0
  9 10  1  0  0  0  0
 10 11  1  0  0  0  0
 11 12  1  0  0  0  0
 12 13  2  0  0  0  0
 12 14  2  0  0  0  0
 14 15  1  0  0  0  0
 15 16  1  0  0  0  0
 12 17  2  0  0  0  0
 17 18  1  0  0  0  0
 18 19  1  0  0  0  0
  1 20  1  0  0  0  0
  1 21  1  0  0  0  0
  1 22  1  0  0  0  0
  2 23  1  0  0  0  0
  2 24  1  0  0  0  0
  7 25  1  0  0  0  0
  7 26  1  0  0  0  0
  8 27  1  0  0  0  0
  8 28  1  0  0  0  0
  8 29  1  0  0  0  0
 10 30  1  0  0  0  0
 10 31  1  0  0  0  0
 15 32  1  0  0  0  0
 15 33  1  0  0  0  0
 16 34  1  0  0  0  0
 16 35  1  0  0  0  0
 16 36  1  0  0  0  0
 18 37  1  0  0  0  0
 18 38  1  0  0  0  0
 19 39  1  0  0  0  0
 19 40  1  0  0  0  0
 19 41  1  0  0  0  0
M  END
