 xtb: 6.7.1 (edcfbbe)
          04092505213D

 41 40  0     0  0            999 V2000
    5.6522    0.1193   -0.0112 C   0  0  0  0  0  0  0  0  0  0  0  0
    4.4510    0.3834   -0.8953 C   0  0  0  0  0  0  0  0  0  0  0  0
    3.3752    0.9978   -0.1424 O   0  0  0  0  0  0  0  0  0  0  0  0
    2.2123    0.1940    0.5546 P   0  0  0  0  0  0  0  0  0  0  0  0
    1.0001    1.4103    1.4910 S   0  0  0  0  0  0  0  0  0  0  0  0
    2.9831   -0.8534    1.4660 O   0  0  0  0  0  0  0  0  0  0  0  0
    2.3192   -1.6527    2.4628 C   0  0  0  0  0  0  0  0  0  0  0  0
    1.8546   -2.9779    1.8910 C   0  0  0  0  0  0  0  0  0  0  0  0
    1.3505   -0.9876   -1.0010 S   0  0  0  0  0  0  0  0  0  0  0  0
    0.3623    0.3457   -1.7493 C   0  0  0  0  0  0  0  0  0  0  0  0
   -1.2553   -0.2307   -2.3365 S   0  0  0  0  0  0  0  0  0  0  0  0
   -2.4007   -0.0469   -0.5780 P   0  0  0  0  0  0  0  0  0  0  0  0
   -4.3131   -0.3591   -0.8664 S   0  0  0  0  0  0  0  0  0  0  0  0
   -2.0491    1.3670    0.0731 O   0  0  0  0  0  0  0  0  0  0  0  0
   -2.8246    2.5422   -0.2014 C   0  0  0  0  0  0  0  0  0  0  0  0
   -2.5236    3.1037   -1.5766 C   0  0  0  0  0  0  0  0  0  0  0  0
   -1.5853   -1.0404    0.3519 O   0  0  0  0  0  0  0  0  0  0  0  0
   -1.6780   -1.0815    1.7931 C   0  0  0  0  0  0  0  0  0  0  0  0
   -3.0957   -1.2614    2.2901 C   0  0  0  0  0  0  0  0  0  0  0  0
    5.4068   -0.6118    0.7538 H   0  0  0  0  0  0  0  0  0  0  0  0
    6.4646   -0.2608   -0.6227 H   0  0  0  0  0  0  0  0  0  0  0  0
    5.9682    1.0398    0.4722 H   0  0  0  0  0  0  0  0  0  0  0  0
    4.0812   -0.5405   -1.3489 H   0  0  0  0  0  0  0  0  0  0  0  0
    4.6844    1.1130   -1.6727 H   0  0  0  0  0  0  0  0  0  0  0  0
    3.0739   -1.8017    3.2372 H   0  0  0  0  0  0  0  0  0  0  0  0
    1.4839   -1.0780    2.8761 H   0  0  0  0  0  0  0  0  0  0  0  0
    1.1018   -2.8243    1.1206 H   0  0  0  0  0  0  0  0  0  0  0  0
    2.6938   -3.5091    1.4507 H   0  0  0  0  0  0  0  0  0  0  0  0
    1.4311   -3.5802    2.6886 H   0  0  0  0  0  0  0  0  0  0  0  0
    0.8777    0.7191   -2.6301 H   0  0  0  0  0  0  0  0  0  0  0  0
    0.2192    1.1275   -1.0002 H   0  0  0  0  0  0  0  0  0  0  0  0
   -3.8856    2.2846   -0.1159 H   0  0  0  0  0  0  0  0  0  0  0  0
   -2.5420    3.2371    0.5911 H   0  0  0  0  0  0  0  0  0  0  0  0
   -1.4623    3.3181   -1.6755 H   0  0  0  0  0  0  0  0  0  0  0  0
   -2.8153    2.3854   -2.3423 H   0  0  0  0  0  0  0  0  0  0  0  0
   -3.0875    4.0197   -1.7202 H   0  0  0  0  0  0  0  0  0  0  0  0
   -1.0550   -1.9375    2.0604 H   0  0  0  0  0  0  0  0  0  0  0  0
   -1.2378   -0.1614    2.1873 H   0  0  0  0  0  0  0  0  0  0  0  0
   -3.5502   -2.1366    1.8310 H   0  0  0  0  0  0  0  0  0  0  0  0
   -3.0825   -1.3846    3.3685 H   0  0  0  0  0  0  0  0  0  0  0  0
   -3.6978   -0.3890    2.0399 H   0  0  0  0  0  0  0  0  0  0  0  0
  1  2  1  0  0  0  0
  2  3  1  0  0  0  0
  3  4  2  0  0  0  0
  4  5  2  0  0  0  0
  4  6  2  0  0  0  0
  6  7  1  0  0  0  0
  7  8  1  0  0  0  0
  4  9  1  0  0  0  0
  9 10  1  0  0  0  0
 10 11  1  0  0  0  0
 11 12  1  0  0  0  0
 12 13  2  0  0  0  0
 12 14  2  0  0  0  0
 14 15  1  0  0  0  0
 15 16  1  0  0  0  0
 12 17  2  0  0  0  0
 17 18  1  0  0  0  0
 18 19  1  0  0  0  0
  1 20  1  0  0  0  0
  1 21  1  0  0  0  0
  1 22  1  0  0  0  0
  2 23  1  0  0  0  0
  2 24  1  0  0  0  0
  7 25  1  0  0  0  0
  7 26  1  0  0  0  0
  8 27  1  0  0  0  0
  8 28  1  0  0  0  0
  8 29  1  0  0  0  0
 10 30  1  0  0  0  0
 10 31  1  0  0  0  0
 15 32  1  0  0  0  0
 15 33  1  0  0  0  0
 16 34  1  0  0  0  0
 16 35  1  0  0  0  0
 16 36  1  0  0  0  0
 18 37  1  0  0  0  0
 18 38  1  0  0  0  0
 19 39  1  0  0  0  0
 19 40  1  0  0  0  0
 19 41  1  0  0  0  0
M  END
