 xtb: 6.7.1 (edcfbbe)
          04092505203D

 41 40  0     0  0            999 V2000
    2.5276   -2.9838   -1.2054 C   0  0  0  0  0  0  0  0  0  0  0  0
    3.3567   -1.8441   -1.7557 C   0  0  0  0  0  0  0  0  0  0  0  0
    3.5363   -0.7780   -0.7935 O   0  0  0  0  0  0  0  0  0  0  0  0
    2.4049    0.0799   -0.1109 P   0  0  0  0  0  0  0  0  0  0  0  0
    3.0966    1.7632    0.6002 S   0  0  0  0  0  0  0  0  0  0  0  0
    1.7911   -0.9054    0.9812 O   0  0  0  0  0  0  0  0  0  0  0  0
    1.3653   -0.5205    2.2977 C   0  0  0  0  0  0  0  0  0  0  0  0
    2.1969   -1.2625    3.3252 C   0  0  0  0  0  0  0  0  0  0  0  0
    0.9278    0.2396   -1.6467 S   0  0  0  0  0  0  0  0  0  0  0  0
    0.1840    1.7885   -1.0880 C   0  0  0  0  0  0  0  0  0  0  0  0
   -0.6078    1.6535    0.5355 S   0  0  0  0  0  0  0  0  0  0  0  0
   -2.0550    0.2072   -0.0188 P   0  0  0  0  0  0  0  0  0  0  0  0
   -2.7867    0.3390   -1.8370 S   0  0  0  0  0  0  0  0  0  0  0  0
   -3.0765    0.2340    1.1962 O   0  0  0  0  0  0  0  0  0  0  0  0
   -3.7318    1.4012    1.7252 C   0  0  0  0  0  0  0  0  0  0  0  0
   -4.4095    2.2354    0.6580 C   0  0  0  0  0  0  0  0  0  0  0  0
   -1.2920   -1.1492    0.2899 O   0  0  0  0  0  0  0  0  0  0  0  0
   -1.5959   -2.3750   -0.4030 C   0  0  0  0  0  0  0  0  0  0  0  0
   -2.9400   -2.9254    0.0238 C   0  0  0  0  0  0  0  0  0  0  0  0
    2.4718   -3.7748   -1.9468 H   0  0  0  0  0  0  0  0  0  0  0  0
    2.9762   -3.3712   -0.2946 H   0  0  0  0  0  0  0  0  0  0  0  0
    1.5217   -2.6333   -0.9830 H   0  0  0  0  0  0  0  0  0  0  0  0
    2.8944   -1.4222   -2.6522 H   0  0  0  0  0  0  0  0  0  0  0  0
    4.3790   -2.1545   -1.9770 H   0  0  0  0  0  0  0  0  0  0  0  0
    1.4809    0.5627    2.4133 H   0  0  0  0  0  0  0  0  0  0  0  0
    0.3067   -0.7824    2.3691 H   0  0  0  0  0  0  0  0  0  0  0  0
    1.8497   -1.0010    4.3195 H   0  0  0  0  0  0  0  0  0  0  0  0
    2.1045   -2.3349    3.1805 H   0  0  0  0  0  0  0  0  0  0  0  0
    3.2426   -0.9801    3.2265 H   0  0  0  0  0  0  0  0  0  0  0  0
   -0.5594    2.0577   -1.8379 H   0  0  0  0  0  0  0  0  0  0  0  0
    0.9542    2.5531   -0.9903 H   0  0  0  0  0  0  0  0  0  0  0  0
   -4.4569    0.9902    2.4300 H   0  0  0  0  0  0  0  0  0  0  0  0
   -2.9863    1.9935    2.2633 H   0  0  0  0  0  0  0  0  0  0  0  0
   -5.0954    1.6248    0.0754 H   0  0  0  0  0  0  0  0  0  0  0  0
   -4.9597    3.0439    1.1286 H   0  0  0  0  0  0  0  0  0  0  0  0
   -3.6667    2.6591   -0.0168 H   0  0  0  0  0  0  0  0  0  0  0  0
   -1.5774   -2.1820   -1.4809 H   0  0  0  0  0  0  0  0  0  0  0  0
   -0.7785   -3.0445   -0.1308 H   0  0  0  0  0  0  0  0  0  0  0  0
   -3.1202   -3.8712   -0.4773 H   0  0  0  0  0  0  0  0  0  0  0  0
   -2.9629   -3.0723    1.1002 H   0  0  0  0  0  0  0  0  0  0  0  0
   -3.7251   -2.2213   -0.2506 H   0  0  0  0  0  0  0  0  0  0  0  0
  1  2  1  0  0  0  0
  2  3  1  0  0  0  0
  3  4  2  0  0  0  0
  4  5  2  0  0  0  0
  4  6  2  0  0  0  0
  6  7  1  0  0  0  0
  7  8  1  0  0  0  0
  4  9  1  0  0  0  0
  9 10  1  0  0  0  0
 10 11  1  0  0  0  0
 11 12  1  0  0  0  0
 12 13  2  0  0  0  0
 12 14  2  0  0  0  0
 14 15  1  0  0  0  0
 15 16  1  0  0  0  0
 12 17  2  0  0  0  0
 17 18  1  0  0  0  0
 18 19  1  0  0  0  0
  1 20  1  0  0  0  0
  1 21  1  0  0  0  0
  1 22  1  0  0  0  0
  2 23  1  0  0  0  0
  2 24  1  0  0  0  0
  7 25  1  0  0  0  0
  7 26  1  0  0  0  0
  8 27  1  0  0  0  0
  8 28  1  0  0  0  0
  8 29  1  0  0  0  0
 10 30  1  0  0  0  0
 10 31  1  0  0  0  0
 15 32  1  0  0  0  0
 15 33  1  0  0  0  0
 16 34  1  0  0  0  0
 16 35  1  0  0  0  0
 16 36  1  0  0  0  0
 18 37  1  0  0  0  0
 18 38  1  0  0  0  0
 19 39  1  0  0  0  0
 19 40  1  0  0  0  0
 19 41  1  0  0  0  0
M  END
