 xtb: 6.7.1 (edcfbbe)
          04092505213D

 41 40  0     0  0            999 V2000
    3.7588    0.3191   -2.7963 C   0  0  0  0  0  0  0  0  0  0  0  0
    4.6225   -0.1904   -1.6589 C   0  0  0  0  0  0  0  0  0  0  0  0
    3.8960   -1.0670   -0.7830 O   0  0  0  0  0  0  0  0  0  0  0  0
    2.7635   -0.5332    0.1866 P   0  0  0  0  0  0  0  0  0  0  0  0
    3.1172    1.2545    0.9266 S   0  0  0  0  0  0  0  0  0  0  0  0
    2.8212   -1.7753    1.1666 O   0  0  0  0  0  0  0  0  0  0  0  0
    1.7487   -2.2056    2.0204 C   0  0  0  0  0  0  0  0  0  0  0  0
    1.4014   -1.1772    3.0790 C   0  0  0  0  0  0  0  0  0  0  0  0
    0.9289   -0.7583   -0.8823 S   0  0  0  0  0  0  0  0  0  0  0  0
    0.1716    0.8526   -0.5328 C   0  0  0  0  0  0  0  0  0  0  0  0
   -0.9435    0.8385    0.8977 S   0  0  0  0  0  0  0  0  0  0  0  0
   -2.7812    0.3910   -0.0921 P   0  0  0  0  0  0  0  0  0  0  0  0
   -2.7460    0.4947   -2.0559 S   0  0  0  0  0  0  0  0  0  0  0  0
   -3.8709    1.3153    0.5884 O   0  0  0  0  0  0  0  0  0  0  0  0
   -4.2138    2.6043    0.0546 C   0  0  0  0  0  0  0  0  0  0  0  0
   -3.1003    3.6145    0.2511 C   0  0  0  0  0  0  0  0  0  0  0  0
   -3.2927   -0.9486    0.5800 O   0  0  0  0  0  0  0  0  0  0  0  0
   -2.4995   -2.1325    0.7624 C   0  0  0  0  0  0  0  0  0  0  0  0
   -2.1683   -2.8142   -0.5509 C   0  0  0  0  0  0  0  0  0  0  0  0
    4.3777    0.8638   -3.5021 H   0  0  0  0  0  0  0  0  0  0  0  0
    3.2767   -0.5118   -3.3054 H   0  0  0  0  0  0  0  0  0  0  0  0
    2.9920    0.9903   -2.4115 H   0  0  0  0  0  0  0  0  0  0  0  0
    5.0180    0.6450   -1.0713 H   0  0  0  0  0  0  0  0  0  0  0  0
    5.4451   -0.8066   -2.0243 H   0  0  0  0  0  0  0  0  0  0  0  0
    0.8790   -2.4375    1.3974 H   0  0  0  0  0  0  0  0  0  0  0  0
    2.1312   -3.1241    2.4690 H   0  0  0  0  0  0  0  0  0  0  0  0
    2.2902   -0.9040    3.6424 H   0  0  0  0  0  0  0  0  0  0  0  0
    0.9952   -0.2761    2.6196 H   0  0  0  0  0  0  0  0  0  0  0  0
    0.6610   -1.5906    3.7565 H   0  0  0  0  0  0  0  0  0  0  0  0
   -0.3989    1.1317   -1.4201 H   0  0  0  0  0  0  0  0  0  0  0  0
    0.9610    1.5714   -0.3066 H   0  0  0  0  0  0  0  0  0  0  0  0
   -4.4499    2.4928   -1.0090 H   0  0  0  0  0  0  0  0  0  0  0  0
   -5.1128    2.8856    0.6046 H   0  0  0  0  0  0  0  0  0  0  0  0
   -2.2423    3.3495   -0.3655 H   0  0  0  0  0  0  0  0  0  0  0  0
   -3.4512    4.5987   -0.0425 H   0  0  0  0  0  0  0  0  0  0  0  0
   -2.7914    3.6375    1.2932 H   0  0  0  0  0  0  0  0  0  0  0  0
   -1.5879   -1.8635    1.3058 H   0  0  0  0  0  0  0  0  0  0  0  0
   -3.1257   -2.7666    1.3925 H   0  0  0  0  0  0  0  0  0  0  0  0
   -1.6647   -3.7551   -0.3529 H   0  0  0  0  0  0  0  0  0  0  0  0
   -3.0786   -3.0058   -1.1133 H   0  0  0  0  0  0  0  0  0  0  0  0
   -1.5148   -2.1851   -1.1545 H   0  0  0  0  0  0  0  0  0  0  0  0
  1  2  1  0  0  0  0
  2  3  1  0  0  0  0
  3  4  2  0  0  0  0
  4  5  2  0  0  0  0
  4  6  2  0  0  0  0
  6  7  1  0  0  0  0
  7  8  1  0  0  0  0
  4  9  1  0  0  0  0
  9 10  1  0  0  0  0
 10 11  1  0  0  0  0
 11 12  1  0  0  0  0
 12 13  2  0  0  0  0
 12 14  2  0  0  0  0
 14 15  1  0  0  0  0
 15 16  1  0  0  0  0
 12 17  2  0  0  0  0
 17 18  1  0  0  0  0
 18 19  1  0  0  0  0
  1 20  1  0  0  0  0
  1 21  1  0  0  0  0
  1 22  1  0  0  0  0
  2 23  1  0  0  0  0
  2 24  1  0  0  0  0
  7 25  1  0  0  0  0
  7 26  1  0  0  0  0
  8 27  1  0  0  0  0
  8 28  1  0  0  0  0
  8 29  1  0  0  0  0
 10 30  1  0  0  0  0
 10 31  1  0  0  0  0
 15 32  1  0  0  0  0
 15 33  1  0  0  0  0
 16 34  1  0  0  0  0
 16 35  1  0  0  0  0
 16 36  1  0  0  0  0
 18 37  1  0  0  0  0
 18 38  1  0  0  0  0
 19 39  1  0  0  0  0
 19 40  1  0  0  0  0
 19 41  1  0  0  0  0
M  END
