 xtb: 6.7.1 (edcfbbe)
          04092505203D

 41 40  0     0  0            999 V2000
    5.4384    0.3443   -0.9857 C   0  0  0  0  0  0  0  0  0  0  0  0
    4.5131   -0.5943   -0.2364 C   0  0  0  0  0  0  0  0  0  0  0  0
    3.4263    0.1418    0.3619 O   0  0  0  0  0  0  0  0  0  0  0  0
    1.9698    0.1716   -0.2847 P   0  0  0  0  0  0  0  0  0  0  0  0
    1.9411    0.5030   -2.2215 S   0  0  0  0  0  0  0  0  0  0  0  0
    1.2690    1.2230    0.6621 O   0  0  0  0  0  0  0  0  0  0  0  0
    1.4086    2.6436    0.4389 C   0  0  0  0  0  0  0  0  0  0  0  0
    0.5359    3.3523    1.4518 C   0  0  0  0  0  0  0  0  0  0  0  0
    1.1532   -1.6483    0.3617 S   0  0  0  0  0  0  0  0  0  0  0  0
   -0.0631   -1.9618   -0.9648 C   0  0  0  0  0  0  0  0  0  0  0  0
   -1.7492   -2.0947   -0.3423 S   0  0  0  0  0  0  0  0  0  0  0  0
   -2.0379   -0.0430    0.1518 P   0  0  0  0  0  0  0  0  0  0  0  0
   -1.4414    1.2563   -1.1854 S   0  0  0  0  0  0  0  0  0  0  0  0
   -1.3142    0.2245    1.5235 O   0  0  0  0  0  0  0  0  0  0  0  0
   -1.5453   -0.5674    2.7182 C   0  0  0  0  0  0  0  0  0  0  0  0
   -0.3822   -0.3322    3.6585 C   0  0  0  0  0  0  0  0  0  0  0  0
   -3.5637   -0.0075    0.5949 O   0  0  0  0  0  0  0  0  0  0  0  0
   -4.6640   -0.5695   -0.1453 C   0  0  0  0  0  0  0  0  0  0  0  0
   -4.7371   -0.0566   -1.5679 C   0  0  0  0  0  0  0  0  0  0  0  0
    4.9057    0.8116   -1.8115 H   0  0  0  0  0  0  0  0  0  0  0  0
    5.8056    1.1195   -0.3191 H   0  0  0  0  0  0  0  0  0  0  0  0
    6.2775   -0.2197   -1.3796 H   0  0  0  0  0  0  0  0  0  0  0  0
    5.0217   -1.0761    0.6003 H   0  0  0  0  0  0  0  0  0  0  0  0
    4.1073   -1.3563   -0.9076 H   0  0  0  0  0  0  0  0  0  0  0  0
    2.4625    2.9092    0.5539 H   0  0  0  0  0  0  0  0  0  0  0  0
    1.0902    2.8622   -0.5864 H   0  0  0  0  0  0  0  0  0  0  0  0
   -0.4971    3.0365    1.3261 H   0  0  0  0  0  0  0  0  0  0  0  0
    0.8611    3.1075    2.4586 H   0  0  0  0  0  0  0  0  0  0  0  0
    0.6054    4.4237    1.2948 H   0  0  0  0  0  0  0  0  0  0  0  0
    0.1704   -2.9227   -1.4159 H   0  0  0  0  0  0  0  0  0  0  0  0
    0.0052   -1.1533   -1.6989 H   0  0  0  0  0  0  0  0  0  0  0  0
   -2.4916   -0.2416    3.1536 H   0  0  0  0  0  0  0  0  0  0  0  0
   -1.6189   -1.6209    2.4317 H   0  0  0  0  0  0  0  0  0  0  0  0
    0.5492   -0.6285    3.1817 H   0  0  0  0  0  0  0  0  0  0  0  0
   -0.3200    0.7202    3.9200 H   0  0  0  0  0  0  0  0  0  0  0  0
   -0.5275   -0.9210    4.5583 H   0  0  0  0  0  0  0  0  0  0  0  0
   -4.5617   -1.6580   -0.1309 H   0  0  0  0  0  0  0  0  0  0  0  0
   -5.5398   -0.2696    0.4328 H   0  0  0  0  0  0  0  0  0  0  0  0
   -3.8577   -0.3724   -2.1276 H   0  0  0  0  0  0  0  0  0  0  0  0
   -5.6244   -0.4539   -2.0499 H   0  0  0  0  0  0  0  0  0  0  0  0
   -4.7762    1.0302   -1.5787 H   0  0  0  0  0  0  0  0  0  0  0  0
  1  2  1  0  0  0  0
  2  3  1  0  0  0  0
  3  4  2  0  0  0  0
  4  5  2  0  0  0  0
  4  6  2  0  0  0  0
  6  7  1  0  0  0  0
  7  8  1  0  0  0  0
  4  9  1  0  0  0  0
  9 10  1  0  0  0  0
 10 11  1  0  0  0  0
 11 12  1  0  0  0  0
 12 13  2  0  0  0  0
 12 14  2  0  0  0  0
 14 15  1  0  0  0  0
 15 16  1  0  0  0  0
 12 17  2  0  0  0  0
 17 18  1  0  0  0  0
 18 19  1  0  0  0  0
  1 20  1  0  0  0  0
  1 21  1  0  0  0  0
  1 22  1  0  0  0  0
  2 23  1  0  0  0  0
  2 24  1  0  0  0  0
  7 25  1  0  0  0  0
  7 26  1  0  0  0  0
  8 27  1  0  0  0  0
  8 28  1  0  0  0  0
  8 29  1  0  0  0  0
 10 30  1  0  0  0  0
 10 31  1  0  0  0  0
 15 32  1  0  0  0  0
 15 33  1  0  0  0  0
 16 34  1  0  0  0  0
 16 35  1  0  0  0  0
 16 36  1  0  0  0  0
 18 37  1  0  0  0  0
 18 38  1  0  0  0  0
 19 39  1  0  0  0  0
 19 40  1  0  0  0  0
 19 41  1  0  0  0  0
M  END
