 xtb: 6.7.1 (edcfbbe)
          04092507313D

 38 37  0     0  0            999 V2000
    3.6406   -4.1922   -0.5630 C   0  0  0  0  0  0  0  0  0  0  0  0
    2.2203   -3.7597   -0.8908 C   0  0  0  0  0  0  0  0  0  0  0  0
    1.9041   -2.5010   -0.2646 O   0  0  0  0  0  0  0  0  0  0  0  0
    2.2794   -1.3923   -0.8698 C   0  0  0  0  0  0  0  0  0  0  0  0
    2.8468   -1.3442   -1.9373 O   0  0  0  0  0  0  0  0  0  0  0  0
    1.8716   -0.1635   -0.0767 C   0  0  0  0  0  0  0  0  0  0  0  0
    0.8726    0.6439   -0.9065 C   0  0  0  0  0  0  0  0  0  0  0  0
    1.3295    0.9111   -1.8640 H   0  0  0  0  0  0  0  0  0  0  0  0
    0.4277    1.9021   -0.1881 C   0  0  0  0  0  0  0  0  0  0  0  0
   -0.7380    2.1183    0.0827 O   0  0  0  0  0  0  0  0  0  0  0  0
    1.4277    2.6803    0.1041 O   0  0  0  0  0  0  0  0  0  0  0  0
    1.1603    3.9112    0.8144 C   0  0  0  0  0  0  0  0  0  0  0  0
    0.7682    5.0189   -0.1487 C   0  0  0  0  0  0  0  0  0  0  0  0
   -0.6128   -0.3235   -1.3393 S   0  0  0  0  0  0  0  0  0  0  0  0
   -1.7673   -0.1688    0.4431 P   0  0  0  0  0  0  0  0  0  0  0  0
   -0.9098    0.0398    2.2040 S   0  0  0  0  0  0  0  0  0  0  0  0
   -3.0810    0.6637    0.1413 O   0  0  0  0  0  0  0  0  0  0  0  0
   -3.4370    1.9077    0.7478 C   0  0  0  0  0  0  0  0  0  0  0  0
   -2.5177   -1.5834    0.3381 O   0  0  0  0  0  0  0  0  0  0  0  0
   -1.8095   -2.8049    0.5560 C   0  0  0  0  0  0  0  0  0  0  0  0
    3.8224   -5.1743   -0.9868 H   0  0  0  0  0  0  0  0  0  0  0  0
    4.3529   -3.4878   -0.9860 H   0  0  0  0  0  0  0  0  0  0  0  0
    3.7794   -4.2347    0.5139 H   0  0  0  0  0  0  0  0  0  0  0  0
    1.4890   -4.4579   -0.4835 H   0  0  0  0  0  0  0  0  0  0  0  0
    2.0872   -3.6519   -1.9711 H   0  0  0  0  0  0  0  0  0  0  0  0
    2.7522    0.4551    0.1029 H   0  0  0  0  0  0  0  0  0  0  0  0
    1.4342   -0.4724    0.8737 H   0  0  0  0  0  0  0  0  0  0  0  0
    0.3693    3.7244    1.5455 H   0  0  0  0  0  0  0  0  0  0  0  0
    2.0999    4.1345    1.3190 H   0  0  0  0  0  0  0  0  0  0  0  0
   -0.1651    4.7719   -0.6495 H   0  0  0  0  0  0  0  0  0  0  0  0
    0.6350    5.9418    0.4058 H   0  0  0  0  0  0  0  0  0  0  0  0
    1.5449    5.1586   -0.8952 H   0  0  0  0  0  0  0  0  0  0  0  0
   -4.5105    1.8617    0.9180 H   0  0  0  0  0  0  0  0  0  0  0  0
   -3.1849    2.7217    0.0709 H   0  0  0  0  0  0  0  0  0  0  0  0
   -2.9073    2.0375    1.6929 H   0  0  0  0  0  0  0  0  0  0  0  0
   -1.2833   -2.7679    1.5123 H   0  0  0  0  0  0  0  0  0  0  0  0
   -1.0950   -2.9775   -0.2502 H   0  0  0  0  0  0  0  0  0  0  0  0
   -2.5670   -3.5841    0.5681 H   0  0  0  0  0  0  0  0  0  0  0  0
  1  2  1  0  0  0  0
  2  3  1  0  0  0  0
  3  4  1  0  0  0  0
  4  5  2  0  0  0  0
  4  6  1  0  0  0  0
  6  7  1  0  0  0  0
  7  8  1  0  0  0  0
  7  9  1  0  0  0  0
  9 10  2  0  0  0  0
  9 11  4  0  0  0  0
 11 12  1  0  0  0  0
 12 13  1  0  0  0  0
  7 14  1  0  0  0  0
 14 15  1  0  0  0  0
 15 16  2  0  0  0  0
 15 17  2  0  0  0  0
 17 18  1  0  0  0  0
 15 19  1  0  0  0  0
 19 20  1  0  0  0  0
  1 21  1  0  0  0  0
  1 22  1  0  0  0  0
  1 23  1  0  0  0  0
  2 24  1  0  0  0  0
  2 25  1  0  0  0  0
  6 26  1  0  0  0  0
  6 27  1  0  0  0  0
 12 28  1  0  0  0  0
 12 29  1  0  0  0  0
 13 30  1  0  0  0  0
 13 31  1  0  0  0  0
 13 32  1  0  0  0  0
 18 33  1  0  0  0  0
 18 34  1  0  0  0  0
 18 35  1  0  0  0  0
 20 36  1  0  0  0  0
 20 37  1  0  0  0  0
 20 38  1  0  0  0  0
M  END
