 xtb: 6.7.1 (edcfbbe)
          04092505213D

 41 40  0     0  0            999 V2000
    1.6486   -1.4833   -2.3724 C   0  0  0  0  0  0  0  0  0  0  0  0
    2.9392   -0.7747   -2.0142 C   0  0  0  0  0  0  0  0  0  0  0  0
    2.7540    0.1846   -0.9461 O   0  0  0  0  0  0  0  0  0  0  0  0
    2.6490   -0.1175    0.5974 P   0  0  0  0  0  0  0  0  0  0  0  0
    2.9431    1.5555    1.5741 S   0  0  0  0  0  0  0  0  0  0  0  0
    3.6923   -1.3017    0.7654 O   0  0  0  0  0  0  0  0  0  0  0  0
    3.7621   -2.1938    1.8945 C   0  0  0  0  0  0  0  0  0  0  0  0
    3.9134   -1.4613    3.2108 C   0  0  0  0  0  0  0  0  0  0  0  0
    0.7763   -1.0498    1.0354 S   0  0  0  0  0  0  0  0  0  0  0  0
   -0.1772    0.4766    1.1274 C   0  0  0  0  0  0  0  0  0  0  0  0
   -0.5522    1.1649   -0.5163 S   0  0  0  0  0  0  0  0  0  0  0  0
   -2.5575    0.4421   -0.6487 P   0  0  0  0  0  0  0  0  0  0  0  0
   -3.4383    0.8126   -2.3561 S   0  0  0  0  0  0  0  0  0  0  0  0
   -3.2835    0.9722    0.6584 O   0  0  0  0  0  0  0  0  0  0  0  0
   -4.0415    2.1937    0.6492 C   0  0  0  0  0  0  0  0  0  0  0  0
   -3.1474    3.4150    0.5618 C   0  0  0  0  0  0  0  0  0  0  0  0
   -2.4570   -1.0663   -0.1728 O   0  0  0  0  0  0  0  0  0  0  0  0
   -2.0097   -2.1037   -1.0701 C   0  0  0  0  0  0  0  0  0  0  0  0
   -3.1971   -2.8590   -1.6327 C   0  0  0  0  0  0  0  0  0  0  0  0
    1.3307   -2.1371   -1.5635 H   0  0  0  0  0  0  0  0  0  0  0  0
    0.8679   -0.7509   -2.5689 H   0  0  0  0  0  0  0  0  0  0  0  0
    1.8080   -2.0783   -3.2661 H   0  0  0  0  0  0  0  0  0  0  0  0
    3.2961   -0.1598   -2.8419 H   0  0  0  0  0  0  0  0  0  0  0  0
    3.7130   -1.4841   -1.7166 H   0  0  0  0  0  0  0  0  0  0  0  0
    2.8603   -2.8119    1.8970 H   0  0  0  0  0  0  0  0  0  0  0  0
    4.6363   -2.8107    1.6788 H   0  0  0  0  0  0  0  0  0  0  0  0
    3.0259   -0.8639    3.4137 H   0  0  0  0  0  0  0  0  0  0  0  0
    4.0463   -2.1818    4.0112 H   0  0  0  0  0  0  0  0  0  0  0  0
    4.7728   -0.7956    3.1785 H   0  0  0  0  0  0  0  0  0  0  0  0
    0.4159    1.2229    1.6596 H   0  0  0  0  0  0  0  0  0  0  0  0
   -1.1061    0.2543    1.6471 H   0  0  0  0  0  0  0  0  0  0  0  0
   -4.7368    2.1668   -0.1960 H   0  0  0  0  0  0  0  0  0  0  0  0
   -4.5973    2.1668    1.5876 H   0  0  0  0  0  0  0  0  0  0  0  0
   -3.7547    4.3111    0.6389 H   0  0  0  0  0  0  0  0  0  0  0  0
   -2.4130    3.4103    1.3637 H   0  0  0  0  0  0  0  0  0  0  0  0
   -2.6244    3.4256   -0.3944 H   0  0  0  0  0  0  0  0  0  0  0  0
   -1.4179   -1.6599   -1.8767 H   0  0  0  0  0  0  0  0  0  0  0  0
   -1.3738   -2.7484   -0.4595 H   0  0  0  0  0  0  0  0  0  0  0  0
   -3.8111   -2.1925   -2.2348 H   0  0  0  0  0  0  0  0  0  0  0  0
   -2.8417   -3.6738   -2.2549 H   0  0  0  0  0  0  0  0  0  0  0  0
   -3.8019   -3.2578   -0.8236 H   0  0  0  0  0  0  0  0  0  0  0  0
  1  2  1  0  0  0  0
  2  3  1  0  0  0  0
  3  4  2  0  0  0  0
  4  5  2  0  0  0  0
  4  6  2  0  0  0  0
  6  7  1  0  0  0  0
  7  8  1  0  0  0  0
  4  9  1  0  0  0  0
  9 10  1  0  0  0  0
 10 11  1  0  0  0  0
 11 12  1  0  0  0  0
 12 13  2  0  0  0  0
 12 14  2  0  0  0  0
 14 15  1  0  0  0  0
 15 16  1  0  0  0  0
 12 17  2  0  0  0  0
 17 18  1  0  0  0  0
 18 19  1  0  0  0  0
  1 20  1  0  0  0  0
  1 21  1  0  0  0  0
  1 22  1  0  0  0  0
  2 23  1  0  0  0  0
  2 24  1  0  0  0  0
  7 25  1  0  0  0  0
  7 26  1  0  0  0  0
  8 27  1  0  0  0  0
  8 28  1  0  0  0  0
  8 29  1  0  0  0  0
 10 30  1  0  0  0  0
 10 31  1  0  0  0  0
 15 32  1  0  0  0  0
 15 33  1  0  0  0  0
 16 34  1  0  0  0  0
 16 35  1  0  0  0  0
 16 36  1  0  0  0  0
 18 37  1  0  0  0  0
 18 38  1  0  0  0  0
 19 39  1  0  0  0  0
 19 40  1  0  0  0  0
 19 41  1  0  0  0  0
M  END
