 xtb: 6.7.1 (edcfbbe)
          04092507313D

 38 37  0     0  0            999 V2000
    3.9225   -3.1828   -2.7198 C   0  0  0  0  0  0  0  0  0  0  0  0
    2.8370   -3.2310   -1.6629 C   0  0  0  0  0  0  0  0  0  0  0  0
    2.6801   -1.9040   -1.1225 O   0  0  0  0  0  0  0  0  0  0  0  0
    1.8795   -1.7519   -0.0906 C   0  0  0  0  0  0  0  0  0  0  0  0
    1.2817   -2.6567    0.4500 O   0  0  0  0  0  0  0  0  0  0  0  0
    1.7595   -0.2943    0.3143 C   0  0  0  0  0  0  0  0  0  0  0  0
    0.9156    0.4359   -0.7315 C   0  0  0  0  0  0  0  0  0  0  0  0
    1.4735    0.5194   -1.6693 H   0  0  0  0  0  0  0  0  0  0  0  0
    0.4887    1.8282   -0.2956 C   0  0  0  0  0  0  0  0  0  0  0  0
   -0.6228    2.2677   -0.5165 O   0  0  0  0  0  0  0  0  0  0  0  0
    1.4500    2.4725    0.3012 O   0  0  0  0  0  0  0  0  0  0  0  0
    1.1675    3.7948    0.8090 C   0  0  0  0  0  0  0  0  0  0  0  0
    2.2385    4.1434    1.8225 C   0  0  0  0  0  0  0  0  0  0  0  0
   -0.5923   -0.4855   -1.1901 S   0  0  0  0  0  0  0  0  0  0  0  0
   -1.8696    0.0269    0.4303 P   0  0  0  0  0  0  0  0  0  0  0  0
   -1.1197    0.6880    2.1129 S   0  0  0  0  0  0  0  0  0  0  0  0
   -3.0422    0.9311   -0.1135 O   0  0  0  0  0  0  0  0  0  0  0  0
   -3.7591    0.6397   -1.3286 C   0  0  0  0  0  0  0  0  0  0  0  0
   -2.6589   -1.3613    0.6105 O   0  0  0  0  0  0  0  0  0  0  0  0
   -2.0455   -2.4817    1.2549 C   0  0  0  0  0  0  0  0  0  0  0  0
    3.6416   -2.4944   -3.5109 H   0  0  0  0  0  0  0  0  0  0  0  0
    4.8577   -2.8501   -2.2797 H   0  0  0  0  0  0  0  0  0  0  0  0
    4.0575   -4.1739   -3.1395 H   0  0  0  0  0  0  0  0  0  0  0  0
    3.0924   -3.9095   -0.8433 H   0  0  0  0  0  0  0  0  0  0  0  0
    1.8749   -3.5419   -2.0816 H   0  0  0  0  0  0  0  0  0  0  0  0
    2.7460    0.1655    0.3548 H   0  0  0  0  0  0  0  0  0  0  0  0
    1.2834   -0.2424    1.2951 H   0  0  0  0  0  0  0  0  0  0  0  0
    1.1670    4.4869   -0.0379 H   0  0  0  0  0  0  0  0  0  0  0  0
    0.1682    3.7825    1.2551 H   0  0  0  0  0  0  0  0  0  0  0  0
    2.2086    3.4410    2.6503 H   0  0  0  0  0  0  0  0  0  0  0  0
    3.2185    4.1031    1.3574 H   0  0  0  0  0  0  0  0  0  0  0  0
    2.0594    5.1448    2.1990 H   0  0  0  0  0  0  0  0  0  0  0  0
   -3.0698    0.6418   -2.1730 H   0  0  0  0  0  0  0  0  0  0  0  0
   -4.4849    1.4428   -1.4247 H   0  0  0  0  0  0  0  0  0  0  0  0
   -4.2532   -0.3269   -1.2460 H   0  0  0  0  0  0  0  0  0  0  0  0
   -2.7813   -3.2800    1.2150 H   0  0  0  0  0  0  0  0  0  0  0  0
   -1.8072   -2.2290    2.2888 H   0  0  0  0  0  0  0  0  0  0  0  0
   -1.1302   -2.7756    0.7385 H   0  0  0  0  0  0  0  0  0  0  0  0
  1  2  1  0  0  0  0
  2  3  1  0  0  0  0
  3  4  1  0  0  0  0
  4  5  2  0  0  0  0
  4  6  1  0  0  0  0
  6  7  1  0  0  0  0
  7  8  1  0  0  0  0
  7  9  1  0  0  0  0
  9 10  2  0  0  0  0
  9 11  4  0  0  0  0
 11 12  1  0  0  0  0
 12 13  1  0  0  0  0
  7 14  1  0  0  0  0
 14 15  1  0  0  0  0
 15 16  2  0  0  0  0
 15 17  2  0  0  0  0
 17 18  1  0  0  0  0
 15 19  1  0  0  0  0
 19 20  1  0  0  0  0
  1 21  1  0  0  0  0
  1 22  1  0  0  0  0
  1 23  1  0  0  0  0
  2 24  1  0  0  0  0
  2 25  1  0  0  0  0
  6 26  1  0  0  0  0
  6 27  1  0  0  0  0
 12 28  1  0  0  0  0
 12 29  1  0  0  0  0
 13 30  1  0  0  0  0
 13 31  1  0  0  0  0
 13 32  1  0  0  0  0
 18 33  1  0  0  0  0
 18 34  1  0  0  0  0
 18 35  1  0  0  0  0
 20 36  1  0  0  0  0
 20 37  1  0  0  0  0
 20 38  1  0  0  0  0
M  END
