 xtb: 6.7.1 (edcfbbe)
          04092505213D

 41 40  0     0  0            999 V2000
    5.3719   -2.0673   -1.6995 C   0  0  0  0  0  0  0  0  0  0  0  0
    4.2980   -1.0006   -1.7748 C   0  0  0  0  0  0  0  0  0  0  0  0
    3.2833   -1.3199   -0.8012 O   0  0  0  0  0  0  0  0  0  0  0  0
    2.3453   -0.2124   -0.1545 P   0  0  0  0  0  0  0  0  0  0  0  0
    3.2814    1.4169    0.4177 S   0  0  0  0  0  0  0  0  0  0  0  0
    1.6166   -1.0373    0.9787 O   0  0  0  0  0  0  0  0  0  0  0  0
    2.1679   -1.1498    2.3157 C   0  0  0  0  0  0  0  0  0  0  0  0
    1.0486   -1.0037    3.3259 C   0  0  0  0  0  0  0  0  0  0  0  0
    0.8058    0.0423   -1.5728 S   0  0  0  0  0  0  0  0  0  0  0  0
    0.1355    1.5698   -0.8555 C   0  0  0  0  0  0  0  0  0  0  0  0
   -0.7824    1.2798    0.6674 S   0  0  0  0  0  0  0  0  0  0  0  0
   -2.4382    0.2998   -0.2709 P   0  0  0  0  0  0  0  0  0  0  0  0
   -2.9676    1.0209   -2.0096 S   0  0  0  0  0  0  0  0  0  0  0  0
   -3.5121    0.2388    0.8968 O   0  0  0  0  0  0  0  0  0  0  0  0
   -3.9385    1.3607    1.6941 C   0  0  0  0  0  0  0  0  0  0  0  0
   -4.4538    2.5124    0.8574 C   0  0  0  0  0  0  0  0  0  0  0  0
   -2.0433   -1.2162   -0.4335 O   0  0  0  0  0  0  0  0  0  0  0  0
   -1.6665   -2.0675    0.6750 C   0  0  0  0  0  0  0  0  0  0  0  0
   -2.8141   -2.9844    1.0445 C   0  0  0  0  0  0  0  0  0  0  0  0
    5.8281   -2.0699   -0.7136 H   0  0  0  0  0  0  0  0  0  0  0  0
    4.9376   -3.0443   -1.8903 H   0  0  0  0  0  0  0  0  0  0  0  0
    6.1322   -1.8593   -2.4452 H   0  0  0  0  0  0  0  0  0  0  0  0
    3.8250   -0.9769   -2.7598 H   0  0  0  0  0  0  0  0  0  0  0  0
    4.7026   -0.0087   -1.5460 H   0  0  0  0  0  0  0  0  0  0  0  0
    2.6460   -2.1288    2.3813 H   0  0  0  0  0  0  0  0  0  0  0  0
    2.9215   -0.3667    2.4502 H   0  0  0  0  0  0  0  0  0  0  0  0
    0.3246   -1.8041    3.2054 H   0  0  0  0  0  0  0  0  0  0  0  0
    1.4698   -1.0501    4.3250 H   0  0  0  0  0  0  0  0  0  0  0  0
    0.5509   -0.0458    3.1934 H   0  0  0  0  0  0  0  0  0  0  0  0
   -0.5338    1.9970   -1.6033 H   0  0  0  0  0  0  0  0  0  0  0  0
    0.9557    2.2466   -0.6145 H   0  0  0  0  0  0  0  0  0  0  0  0
   -4.7252    0.9424    2.3244 H   0  0  0  0  0  0  0  0  0  0  0  0
   -3.0950    1.6797    2.3124 H   0  0  0  0  0  0  0  0  0  0  0  0
   -3.6489    2.9291    0.2538 H   0  0  0  0  0  0  0  0  0  0  0  0
   -5.2417    2.1736    0.1889 H   0  0  0  0  0  0  0  0  0  0  0  0
   -4.8435    3.2867    1.5103 H   0  0  0  0  0  0  0  0  0  0  0  0
   -0.7997   -2.6275    0.3168 H   0  0  0  0  0  0  0  0  0  0  0  0
   -1.3717   -1.4391    1.5196 H   0  0  0  0  0  0  0  0  0  0  0  0
   -3.1129   -3.5713    0.1804 H   0  0  0  0  0  0  0  0  0  0  0  0
   -2.4978   -3.6517    1.8401 H   0  0  0  0  0  0  0  0  0  0  0  0
   -3.6660   -2.3992    1.3807 H   0  0  0  0  0  0  0  0  0  0  0  0
  1  2  1  0  0  0  0
  2  3  1  0  0  0  0
  3  4  2  0  0  0  0
  4  5  2  0  0  0  0
  4  6  2  0  0  0  0
  6  7  1  0  0  0  0
  7  8  1  0  0  0  0
  4  9  1  0  0  0  0
  9 10  1  0  0  0  0
 10 11  1  0  0  0  0
 11 12  1  0  0  0  0
 12 13  2  0  0  0  0
 12 14  2  0  0  0  0
 14 15  1  0  0  0  0
 15 16  1  0  0  0  0
 12 17  2  0  0  0  0
 17 18  1  0  0  0  0
 18 19  1  0  0  0  0
  1 20  1  0  0  0  0
  1 21  1  0  0  0  0
  1 22  1  0  0  0  0
  2 23  1  0  0  0  0
  2 24  1  0  0  0  0
  7 25  1  0  0  0  0
  7 26  1  0  0  0  0
  8 27  1  0  0  0  0
  8 28  1  0  0  0  0
  8 29  1  0  0  0  0
 10 30  1  0  0  0  0
 10 31  1  0  0  0  0
 15 32  1  0  0  0  0
 15 33  1  0  0  0  0
 16 34  1  0  0  0  0
 16 35  1  0  0  0  0
 16 36  1  0  0  0  0
 18 37  1  0  0  0  0
 18 38  1  0  0  0  0
 19 39  1  0  0  0  0
 19 40  1  0  0  0  0
 19 41  1  0  0  0  0
M  END
