 xtb: 6.7.1 (edcfbbe)
          04092505213D

 41 40  0     0  0            999 V2000
    4.7228   -1.2855   -0.7050 C   0  0  0  0  0  0  0  0  0  0  0  0
    4.6287    0.1548   -0.2453 C   0  0  0  0  0  0  0  0  0  0  0  0
    3.4452    0.3974    0.5334 O   0  0  0  0  0  0  0  0  0  0  0  0
    1.9874    0.3896   -0.1062 P   0  0  0  0  0  0  0  0  0  0  0  0
    1.9351    1.1179   -1.9327 S   0  0  0  0  0  0  0  0  0  0  0  0
    1.1656    1.0734    1.0648 O   0  0  0  0  0  0  0  0  0  0  0  0
    1.5275    2.3290    1.6820 C   0  0  0  0  0  0  0  0  0  0  0  0
    1.4169    3.4946    0.7210 C   0  0  0  0  0  0  0  0  0  0  0  0
    1.3140   -1.6017    0.1009 S   0  0  0  0  0  0  0  0  0  0  0  0
    0.2978   -1.7600   -1.3990 C   0  0  0  0  0  0  0  0  0  0  0  0
   -1.4327   -2.1691   -1.0439 S   0  0  0  0  0  0  0  0  0  0  0  0
   -2.0127   -0.4279   -0.0290 P   0  0  0  0  0  0  0  0  0  0  0  0
   -1.4695    1.3108   -0.7694 S   0  0  0  0  0  0  0  0  0  0  0  0
   -1.5358   -0.7583    1.4397 O   0  0  0  0  0  0  0  0  0  0  0  0
   -1.6865    0.1902    2.5209 C   0  0  0  0  0  0  0  0  0  0  0  0
   -0.7384   -0.2195    3.6283 C   0  0  0  0  0  0  0  0  0  0  0  0
   -3.5893   -0.5875    0.1048 O   0  0  0  0  0  0  0  0  0  0  0  0
   -4.4939   -0.2312   -0.9599 C   0  0  0  0  0  0  0  0  0  0  0  0
   -5.8485    0.0626   -0.3471 C   0  0  0  0  0  0  0  0  0  0  0  0
    4.6059   -1.9605    0.1388 H   0  0  0  0  0  0  0  0  0  0  0  0
    3.9401   -1.4933   -1.4330 H   0  0  0  0  0  0  0  0  0  0  0  0
    5.6891   -1.4506   -1.1704 H   0  0  0  0  0  0  0  0  0  0  0  0
    4.6207    0.8319   -1.1055 H   0  0  0  0  0  0  0  0  0  0  0  0
    5.4445    0.4176    0.4296 H   0  0  0  0  0  0  0  0  0  0  0  0
    0.8149    2.4242    2.5035 H   0  0  0  0  0  0  0  0  0  0  0  0
    2.5417    2.2380    2.0777 H   0  0  0  0  0  0  0  0  0  0  0  0
    2.1649    3.4108   -0.0659 H   0  0  0  0  0  0  0  0  0  0  0  0
    0.4331    3.5033    0.2547 H   0  0  0  0  0  0  0  0  0  0  0  0
    1.5692    4.4247    1.2592 H   0  0  0  0  0  0  0  0  0  0  0  0
    0.6766   -2.5940   -1.9843 H   0  0  0  0  0  0  0  0  0  0  0  0
    0.3579   -0.8241   -1.9634 H   0  0  0  0  0  0  0  0  0  0  0  0
   -1.4592    1.1903    2.1362 H   0  0  0  0  0  0  0  0  0  0  0  0
   -2.7281    0.1599    2.8489 H   0  0  0  0  0  0  0  0  0  0  0  0
   -0.8442    0.4660    4.4630 H   0  0  0  0  0  0  0  0  0  0  0  0
   -0.9703   -1.2285    3.9563 H   0  0  0  0  0  0  0  0  0  0  0  0
    0.2865   -0.1980    3.2670 H   0  0  0  0  0  0  0  0  0  0  0  0
   -4.0909    0.6434   -1.4822 H   0  0  0  0  0  0  0  0  0  0  0  0
   -4.5433   -1.0734   -1.6543 H   0  0  0  0  0  0  0  0  0  0  0  0
   -5.7791    0.9102    0.3289 H   0  0  0  0  0  0  0  0  0  0  0  0
   -6.5533    0.2936   -1.1390 H   0  0  0  0  0  0  0  0  0  0  0  0
   -6.1988   -0.8037    0.2065 H   0  0  0  0  0  0  0  0  0  0  0  0
  1  2  1  0  0  0  0
  2  3  1  0  0  0  0
  3  4  2  0  0  0  0
  4  5  2  0  0  0  0
  4  6  2  0  0  0  0
  6  7  1  0  0  0  0
  7  8  1  0  0  0  0
  4  9  1  0  0  0  0
  9 10  1  0  0  0  0
 10 11  1  0  0  0  0
 11 12  1  0  0  0  0
 12 13  2  0  0  0  0
 12 14  2  0  0  0  0
 14 15  1  0  0  0  0
 15 16  1  0  0  0  0
 12 17  2  0  0  0  0
 17 18  1  0  0  0  0
 18 19  1  0  0  0  0
  1 20  1  0  0  0  0
  1 21  1  0  0  0  0
  1 22  1  0  0  0  0
  2 23  1  0  0  0  0
  2 24  1  0  0  0  0
  7 25  1  0  0  0  0
  7 26  1  0  0  0  0
  8 27  1  0  0  0  0
  8 28  1  0  0  0  0
  8 29  1  0  0  0  0
 10 30  1  0  0  0  0
 10 31  1  0  0  0  0
 15 32  1  0  0  0  0
 15 33  1  0  0  0  0
 16 34  1  0  0  0  0
 16 35  1  0  0  0  0
 16 36  1  0  0  0  0
 18 37  1  0  0  0  0
 18 38  1  0  0  0  0
 19 39  1  0  0  0  0
 19 40  1  0  0  0  0
 19 41  1  0  0  0  0
M  END
