 xtb: 6.7.1 (edcfbbe)
          04092505213D

 41 40  0     0  0            999 V2000
    4.0398   -0.8833   -2.5263 C   0  0  0  0  0  0  0  0  0  0  0  0
    4.3523   -0.8500   -1.0433 C   0  0  0  0  0  0  0  0  0  0  0  0
    3.6671    0.2611   -0.4058 O   0  0  0  0  0  0  0  0  0  0  0  0
    2.4500    0.0872    0.5846 P   0  0  0  0  0  0  0  0  0  0  0  0
    1.9737    1.7869    1.4206 S   0  0  0  0  0  0  0  0  0  0  0  0
    2.9629   -1.0499    1.5711 O   0  0  0  0  0  0  0  0  0  0  0  0
    2.3860   -1.2440    2.8755 C   0  0  0  0  0  0  0  0  0  0  0  0
    0.9432   -1.6984    2.7954 C   0  0  0  0  0  0  0  0  0  0  0  0
    0.9669   -0.9281   -0.5754 S   0  0  0  0  0  0  0  0  0  0  0  0
    0.5093    0.4957   -1.5957 C   0  0  0  0  0  0  0  0  0  0  0  0
   -0.6794    1.6092   -0.7975 S   0  0  0  0  0  0  0  0  0  0  0  0
   -2.2815    0.2310   -0.7782 P   0  0  0  0  0  0  0  0  0  0  0  0
   -2.4882   -0.9061   -2.3535 S   0  0  0  0  0  0  0  0  0  0  0  0
   -3.5652    1.1326   -0.5539 O   0  0  0  0  0  0  0  0  0  0  0  0
   -3.6323    2.3351    0.2466 C   0  0  0  0  0  0  0  0  0  0  0  0
   -3.2980    2.0888    1.7028 C   0  0  0  0  0  0  0  0  0  0  0  0
   -1.9985   -0.5603    0.5828 O   0  0  0  0  0  0  0  0  0  0  0  0
   -2.3695   -1.9404    0.7490 C   0  0  0  0  0  0  0  0  0  0  0  0
   -3.8677   -2.0867    0.9206 C   0  0  0  0  0  0  0  0  0  0  0  0
    4.6592   -1.6388   -2.9993 H   0  0  0  0  0  0  0  0  0  0  0  0
    2.9944   -1.1305   -2.6959 H   0  0  0  0  0  0  0  0  0  0  0  0
    4.2533    0.0831   -2.9751 H   0  0  0  0  0  0  0  0  0  0  0  0
    5.4117   -0.6579   -0.8671 H   0  0  0  0  0  0  0  0  0  0  0  0
    4.0603   -1.7797   -0.5522 H   0  0  0  0  0  0  0  0  0  0  0  0
    3.0246   -2.0008    3.3329 H   0  0  0  0  0  0  0  0  0  0  0  0
    2.4632   -0.3034    3.4295 H   0  0  0  0  0  0  0  0  0  0  0  0
    0.8603   -2.5792    2.1627 H   0  0  0  0  0  0  0  0  0  0  0  0
    0.5837   -1.9310    3.7928 H   0  0  0  0  0  0  0  0  0  0  0  0
    0.3295   -0.9016    2.3752 H   0  0  0  0  0  0  0  0  0  0  0  0
    0.0613    0.0975   -2.5065 H   0  0  0  0  0  0  0  0  0  0  0  0
    1.3927    1.0940   -1.8127 H   0  0  0  0  0  0  0  0  0  0  0  0
   -2.9543    3.0750   -0.1874 H   0  0  0  0  0  0  0  0  0  0  0  0
   -4.6659    2.6616    0.1195 H   0  0  0  0  0  0  0  0  0  0  0  0
   -2.2587    1.7819    1.8057 H   0  0  0  0  0  0  0  0  0  0  0  0
   -3.4470    3.0084    2.2602 H   0  0  0  0  0  0  0  0  0  0  0  0
   -3.9398    1.3132    2.1124 H   0  0  0  0  0  0  0  0  0  0  0  0
   -2.0223   -2.5034   -0.1232 H   0  0  0  0  0  0  0  0  0  0  0  0
   -1.8250   -2.2606    1.6379 H   0  0  0  0  0  0  0  0  0  0  0  0
   -4.3752   -1.7095    0.0327 H   0  0  0  0  0  0  0  0  0  0  0  0
   -4.1162   -3.1350    1.0518 H   0  0  0  0  0  0  0  0  0  0  0  0
   -4.2074   -1.5240    1.7860 H   0  0  0  0  0  0  0  0  0  0  0  0
  1  2  1  0  0  0  0
  2  3  1  0  0  0  0
  3  4  2  0  0  0  0
  4  5  2  0  0  0  0
  4  6  2  0  0  0  0
  6  7  1  0  0  0  0
  7  8  1  0  0  0  0
  4  9  1  0  0  0  0
  9 10  1  0  0  0  0
 10 11  1  0  0  0  0
 11 12  1  0  0  0  0
 12 13  2  0  0  0  0
 12 14  2  0  0  0  0
 14 15  1  0  0  0  0
 15 16  1  0  0  0  0
 12 17  1  0  0  0  0
 17 18  1  0  0  0  0
 18 19  1  0  0  0  0
  1 20  1  0  0  0  0
  1 21  1  0  0  0  0
  1 22  1  0  0  0  0
  2 23  1  0  0  0  0
  2 24  1  0  0  0  0
  7 25  1  0  0  0  0
  7 26  1  0  0  0  0
  8 27  1  0  0  0  0
  8 28  1  0  0  0  0
  8 29  1  0  0  0  0
 10 30  1  0  0  0  0
 10 31  1  0  0  0  0
 15 32  1  0  0  0  0
 15 33  1  0  0  0  0
 16 34  1  0  0  0  0
 16 35  1  0  0  0  0
 16 36  1  0  0  0  0
 18 37  1  0  0  0  0
 18 38  1  0  0  0  0
 19 39  1  0  0  0  0
 19 40  1  0  0  0  0
 19 41  1  0  0  0  0
M  END
