 xtb: 6.7.1 (edcfbbe)
          04092505213D

 41 40  0     0  0            999 V2000
    1.7133    2.2267    1.7971 C   0  0  0  0  0  0  0  0  0  0  0  0
    3.1011    1.6203    1.8142 C   0  0  0  0  0  0  0  0  0  0  0  0
    3.4041    0.9539    0.5780 O   0  0  0  0  0  0  0  0  0  0  0  0
    2.8115   -0.4758    0.2066 P   0  0  0  0  0  0  0  0  0  0  0  0
    2.6739   -1.7124    1.7309 S   0  0  0  0  0  0  0  0  0  0  0  0
    3.7334   -0.8864   -1.0121 O   0  0  0  0  0  0  0  0  0  0  0  0
    5.1667   -0.7093   -1.0475 C   0  0  0  0  0  0  0  0  0  0  0  0
    5.8704   -1.4927    0.0414 C   0  0  0  0  0  0  0  0  0  0  0  0
    1.0324   -0.1930   -0.9130 S   0  0  0  0  0  0  0  0  0  0  0  0
   -0.1404   -1.1325    0.1074 C   0  0  0  0  0  0  0  0  0  0  0  0
   -1.2402   -0.0878    1.1059 S   0  0  0  0  0  0  0  0  0  0  0  0
   -2.8362    0.1182   -0.2693 P   0  0  0  0  0  0  0  0  0  0  0  0
   -2.5975   -0.5976   -2.0845 S   0  0  0  0  0  0  0  0  0  0  0  0
   -3.2743    1.6448   -0.2001 O   0  0  0  0  0  0  0  0  0  0  0  0
   -2.7221    2.6489   -1.0674 C   0  0  0  0  0  0  0  0  0  0  0  0
   -1.2733    2.9480   -0.7398 C   0  0  0  0  0  0  0  0  0  0  0  0
   -3.9606   -0.5808    0.5998 O   0  0  0  0  0  0  0  0  0  0  0  0
   -5.2034   -1.0431    0.0320 C   0  0  0  0  0  0  0  0  0  0  0  0
   -6.0826    0.1017   -0.4265 C   0  0  0  0  0  0  0  0  0  0  0  0
    1.5896    2.8533    0.9175 H   0  0  0  0  0  0  0  0  0  0  0  0
    0.9586    1.4408    1.7814 H   0  0  0  0  0  0  0  0  0  0  0  0
    1.5720    2.8261    2.6905 H   0  0  0  0  0  0  0  0  0  0  0  0
    3.2002    0.8999    2.6330 H   0  0  0  0  0  0  0  0  0  0  0  0
    3.8734    2.3865    1.8976 H   0  0  0  0  0  0  0  0  0  0  0  0
    5.4407   -1.0694   -2.0405 H   0  0  0  0  0  0  0  0  0  0  0  0
    5.3838    0.3578   -0.9654 H   0  0  0  0  0  0  0  0  0  0  0  0
    5.6040   -2.5455   -0.0178 H   0  0  0  0  0  0  0  0  0  0  0  0
    6.9445   -1.3869   -0.0735 H   0  0  0  0  0  0  0  0  0  0  0  0
    5.5786   -1.1190    1.0221 H   0  0  0  0  0  0  0  0  0  0  0  0
    0.4257   -1.7563    0.8031 H   0  0  0  0  0  0  0  0  0  0  0  0
   -0.7429   -1.7345   -0.5707 H   0  0  0  0  0  0  0  0  0  0  0  0
   -2.8203    2.3061   -2.1027 H   0  0  0  0  0  0  0  0  0  0  0  0
   -3.3601    3.5182   -0.9012 H   0  0  0  0  0  0  0  0  0  0  0  0
   -0.6487    2.0892   -0.9861 H   0  0  0  0  0  0  0  0  0  0  0  0
   -0.9417    3.8000   -1.3247 H   0  0  0  0  0  0  0  0  0  0  0  0
   -1.1677    3.1710    0.3190 H   0  0  0  0  0  0  0  0  0  0  0  0
   -4.9735   -1.7121   -0.8036 H   0  0  0  0  0  0  0  0  0  0  0  0
   -5.6643   -1.6077    0.8436 H   0  0  0  0  0  0  0  0  0  0  0  0
   -6.2162    0.8176    0.3801 H   0  0  0  0  0  0  0  0  0  0  0  0
   -5.6226    0.6072   -1.2742 H   0  0  0  0  0  0  0  0  0  0  0  0
   -7.0495   -0.2876   -0.7301 H   0  0  0  0  0  0  0  0  0  0  0  0
  1  2  1  0  0  0  0
  2  3  1  0  0  0  0
  3  4  2  0  0  0  0
  4  5  2  0  0  0  0
  4  6  2  0  0  0  0
  6  7  1  0  0  0  0
  7  8  1  0  0  0  0
  4  9  1  0  0  0  0
  9 10  1  0  0  0  0
 10 11  1  0  0  0  0
 11 12  1  0  0  0  0
 12 13  2  0  0  0  0
 12 14  2  0  0  0  0
 14 15  1  0  0  0  0
 15 16  1  0  0  0  0
 12 17  2  0  0  0  0
 17 18  1  0  0  0  0
 18 19  1  0  0  0  0
  1 20  1  0  0  0  0
  1 21  1  0  0  0  0
  1 22  1  0  0  0  0
  2 23  1  0  0  0  0
  2 24  1  0  0  0  0
  7 25  1  0  0  0  0
  7 26  1  0  0  0  0
  8 27  1  0  0  0  0
  8 28  1  0  0  0  0
  8 29  1  0  0  0  0
 10 30  1  0  0  0  0
 10 31  1  0  0  0  0
 15 32  1  0  0  0  0
 15 33  1  0  0  0  0
 16 34  1  0  0  0  0
 16 35  1  0  0  0  0
 16 36  1  0  0  0  0
 18 37  1  0  0  0  0
 18 38  1  0  0  0  0
 19 39  1  0  0  0  0
 19 40  1  0  0  0  0
 19 41  1  0  0  0  0
M  END
