 xtb: 6.7.1 (edcfbbe)
          04092505213D

 41 40  0     0  0            999 V2000
    5.0897   -0.6864   -1.9789 C   0  0  0  0  0  0  0  0  0  0  0  0
    4.7357   -0.2326   -0.5773 C   0  0  0  0  0  0  0  0  0  0  0  0
    3.6076    0.6773   -0.6074 O   0  0  0  0  0  0  0  0  0  0  0  0
    2.1389    0.2499   -0.1974 P   0  0  0  0  0  0  0  0  0  0  0  0
    0.9628    1.8089   -0.3014 S   0  0  0  0  0  0  0  0  0  0  0  0
    2.2180   -0.4676    1.2307 O   0  0  0  0  0  0  0  0  0  0  0  0
    2.1176    0.2665    2.4637 C   0  0  0  0  0  0  0  0  0  0  0  0
    3.3458    1.1175    2.7102 C   0  0  0  0  0  0  0  0  0  0  0  0
    1.7651   -1.4551   -1.3723 S   0  0  0  0  0  0  0  0  0  0  0  0
    0.1249   -1.9311   -0.7724 C   0  0  0  0  0  0  0  0  0  0  0  0
   -1.2486   -1.0784   -1.6264 S   0  0  0  0  0  0  0  0  0  0  0  0
   -2.1201   -0.0069   -0.0298 P   0  0  0  0  0  0  0  0  0  0  0  0
   -1.3121   -0.2545    1.7433 S   0  0  0  0  0  0  0  0  0  0  0  0
   -3.6484   -0.4521   -0.0867 O   0  0  0  0  0  0  0  0  0  0  0  0
   -4.0744   -1.7428    0.3889 C   0  0  0  0  0  0  0  0  0  0  0  0
   -5.5857   -1.7240    0.4978 C   0  0  0  0  0  0  0  0  0  0  0  0
   -2.2239    1.4421   -0.6390 O   0  0  0  0  0  0  0  0  0  0  0  0
   -2.3856    2.6267    0.1670 C   0  0  0  0  0  0  0  0  0  0  0  0
   -3.6923    2.6184    0.9306 C   0  0  0  0  0  0  0  0  0  0  0  0
    5.9845   -1.2993   -1.9375 H   0  0  0  0  0  0  0  0  0  0  0  0
    4.2769   -1.2690   -2.4071 H   0  0  0  0  0  0  0  0  0  0  0  0
    5.2740    0.1767   -2.6125 H   0  0  0  0  0  0  0  0  0  0  0  0
    5.5458    0.3505   -0.1356 H   0  0  0  0  0  0  0  0  0  0  0  0
    4.4939   -1.0815    0.0667 H   0  0  0  0  0  0  0  0  0  0  0  0
    1.2154    0.8851    2.4297 H   0  0  0  0  0  0  0  0  0  0  0  0
    1.9927   -0.5079    3.2218 H   0  0  0  0  0  0  0  0  0  0  0  0
    3.2479    1.6157    3.6696 H   0  0  0  0  0  0  0  0  0  0  0  0
    4.2403    0.5001    2.7141 H   0  0  0  0  0  0  0  0  0  0  0  0
    3.4341    1.8712    1.9278 H   0  0  0  0  0  0  0  0  0  0  0  0
    0.0526   -1.7353    0.3007 H   0  0  0  0  0  0  0  0  0  0  0  0
    0.0315   -2.9911   -0.9916 H   0  0  0  0  0  0  0  0  0  0  0  0
   -3.7355   -2.4997   -0.3246 H   0  0  0  0  0  0  0  0  0  0  0  0
   -3.6033   -1.9289    1.3602 H   0  0  0  0  0  0  0  0  0  0  0  0
   -5.9007   -0.9695    1.2129 H   0  0  0  0  0  0  0  0  0  0  0  0
   -6.0225   -1.4955   -0.4700 H   0  0  0  0  0  0  0  0  0  0  0  0
   -5.9308   -2.6980    0.8286 H   0  0  0  0  0  0  0  0  0  0  0  0
   -1.5280    2.7018    0.8433 H   0  0  0  0  0  0  0  0  0  0  0  0
   -2.3386    3.4379   -0.5606 H   0  0  0  0  0  0  0  0  0  0  0  0
   -4.5240    2.4738    0.2460 H   0  0  0  0  0  0  0  0  0  0  0  0
   -3.6896    1.8083    1.6595 H   0  0  0  0  0  0  0  0  0  0  0  0
   -3.8087    3.5631    1.4523 H   0  0  0  0  0  0  0  0  0  0  0  0
  1  2  1  0  0  0  0
  2  3  1  0  0  0  0
  3  4  2  0  0  0  0
  4  5  2  0  0  0  0
  4  6  1  0  0  0  0
  6  7  1  0  0  0  0
  7  8  1  0  0  0  0
  4  9  1  0  0  0  0
  9 10  1  0  0  0  0
 10 11  1  0  0  0  0
 11 12  1  0  0  0  0
 12 13  2  0  0  0  0
 12 14  2  0  0  0  0
 14 15  1  0  0  0  0
 15 16  1  0  0  0  0
 12 17  2  0  0  0  0
 17 18  1  0  0  0  0
 18 19  1  0  0  0  0
  1 20  1  0  0  0  0
  1 21  1  0  0  0  0
  1 22  1  0  0  0  0
  2 23  1  0  0  0  0
  2 24  1  0  0  0  0
  7 25  1  0  0  0  0
  7 26  1  0  0  0  0
  8 27  1  0  0  0  0
  8 28  1  0  0  0  0
  8 29  1  0  0  0  0
 10 30  1  0  0  0  0
 10 31  1  0  0  0  0
 15 32  1  0  0  0  0
 15 33  1  0  0  0  0
 16 34  1  0  0  0  0
 16 35  1  0  0  0  0
 16 36  1  0  0  0  0
 18 37  1  0  0  0  0
 18 38  1  0  0  0  0
 19 39  1  0  0  0  0
 19 40  1  0  0  0  0
 19 41  1  0  0  0  0
M  END
