 xtb: 6.7.1 (edcfbbe)
          04092505203D

 41 40  0     0  0            999 V2000
    4.1024   -1.1913   -2.4212 C   0  0  0  0  0  0  0  0  0  0  0  0
    4.3530   -1.4588   -0.9511 C   0  0  0  0  0  0  0  0  0  0  0  0
    3.1303   -1.5447   -0.1981 O   0  0  0  0  0  0  0  0  0  0  0  0
    2.2021   -0.2827    0.0686 P   0  0  0  0  0  0  0  0  0  0  0  0
    3.1586    1.3941    0.4257 S   0  0  0  0  0  0  0  0  0  0  0  0
    1.2694   -0.8249    1.2278 O   0  0  0  0  0  0  0  0  0  0  0  0
    1.5211   -0.5321    2.6163 C   0  0  0  0  0  0  0  0  0  0  0  0
    2.7363   -1.2748    3.1309 C   0  0  0  0  0  0  0  0  0  0  0  0
    0.8396   -0.2882   -1.5449 S   0  0  0  0  0  0  0  0  0  0  0  0
    0.2251    1.4005   -1.2960 C   0  0  0  0  0  0  0  0  0  0  0  0
   -0.6141    1.6266    0.2937 S   0  0  0  0  0  0  0  0  0  0  0  0
   -2.2059    0.2832   -0.0797 P   0  0  0  0  0  0  0  0  0  0  0  0
   -2.8780    0.2857   -1.9265 S   0  0  0  0  0  0  0  0  0  0  0  0
   -3.3059    0.6014    1.0231 O   0  0  0  0  0  0  0  0  0  0  0  0
   -4.3625    1.5513    0.7973 C   0  0  0  0  0  0  0  0  0  0  0  0
   -3.8472    2.9755    0.7799 C   0  0  0  0  0  0  0  0  0  0  0  0
   -1.5554   -1.0401    0.4969 O   0  0  0  0  0  0  0  0  0  0  0  0
   -2.2804   -2.2201    0.9039 C   0  0  0  0  0  0  0  0  0  0  0  0
   -3.0579   -2.8462   -0.2350 C   0  0  0  0  0  0  0  0  0  0  0  0
    3.3996   -1.9169   -2.8232 H   0  0  0  0  0  0  0  0  0  0  0  0
    3.6866   -0.1933   -2.5536 H   0  0  0  0  0  0  0  0  0  0  0  0
    5.0401   -1.2571   -2.9636 H   0  0  0  0  0  0  0  0  0  0  0  0
    4.9703   -0.6656   -0.5170 H   0  0  0  0  0  0  0  0  0  0  0  0
    4.8266   -2.4286   -0.7926 H   0  0  0  0  0  0  0  0  0  0  0  0
    1.6506    0.5500    2.7251 H   0  0  0  0  0  0  0  0  0  0  0  0
    0.6059   -0.8446    3.1212 H   0  0  0  0  0  0  0  0  0  0  0  0
    3.6303   -0.9117    2.6252 H   0  0  0  0  0  0  0  0  0  0  0  0
    2.8394   -1.1027    4.1977 H   0  0  0  0  0  0  0  0  0  0  0  0
    2.6341   -2.3401    2.9415 H   0  0  0  0  0  0  0  0  0  0  0  0
   -0.4721    1.5964   -2.1103 H   0  0  0  0  0  0  0  0  0  0  0  0
    1.0590    2.1015   -1.3056 H   0  0  0  0  0  0  0  0  0  0  0  0
   -4.8496    1.3070   -0.1522 H   0  0  0  0  0  0  0  0  0  0  0  0
   -5.0512    1.3804    1.6257 H   0  0  0  0  0  0  0  0  0  0  0  0
   -3.2090    3.1295   -0.0891 H   0  0  0  0  0  0  0  0  0  0  0  0
   -4.6866    3.6611    0.7264 H   0  0  0  0  0  0  0  0  0  0  0  0
   -3.2688    3.1798    1.6773 H   0  0  0  0  0  0  0  0  0  0  0  0
   -1.4924   -2.8859    1.2613 H   0  0  0  0  0  0  0  0  0  0  0  0
   -2.9428   -1.9475    1.7289 H   0  0  0  0  0  0  0  0  0  0  0  0
   -2.3989   -3.0434   -1.0777 H   0  0  0  0  0  0  0  0  0  0  0  0
   -3.5011   -3.7785    0.1012 H   0  0  0  0  0  0  0  0  0  0  0  0
   -3.8492   -2.1755   -0.5668 H   0  0  0  0  0  0  0  0  0  0  0  0
  1  2  1  0  0  0  0
  2  3  1  0  0  0  0
  3  4  2  0  0  0  0
  4  5  2  0  0  0  0
  4  6  2  0  0  0  0
  6  7  1  0  0  0  0
  7  8  1  0  0  0  0
  4  9  1  0  0  0  0
  9 10  1  0  0  0  0
 10 11  1  0  0  0  0
 11 12  1  0  0  0  0
 12 13  2  0  0  0  0
 12 14  2  0  0  0  0
 14 15  1  0  0  0  0
 15 16  1  0  0  0  0
 12 17  2  0  0  0  0
 17 18  1  0  0  0  0
 18 19  1  0  0  0  0
  1 20  1  0  0  0  0
  1 21  1  0  0  0  0
  1 22  1  0  0  0  0
  2 23  1  0  0  0  0
  2 24  1  0  0  0  0
  7 25  1  0  0  0  0
  7 26  1  0  0  0  0
  8 27  1  0  0  0  0
  8 28  1  0  0  0  0
  8 29  1  0  0  0  0
 10 30  1  0  0  0  0
 10 31  1  0  0  0  0
 15 32  1  0  0  0  0
 15 33  1  0  0  0  0
 16 34  1  0  0  0  0
 16 35  1  0  0  0  0
 16 36  1  0  0  0  0
 18 37  1  0  0  0  0
 18 38  1  0  0  0  0
 19 39  1  0  0  0  0
 19 40  1  0  0  0  0
 19 41  1  0  0  0  0
M  END
