 xtb: 6.7.1 (edcfbbe)
          04092505213D

 41 40  0     0  0            999 V2000
    3.2831    2.0662   -1.8210 C   0  0  0  0  0  0  0  0  0  0  0  0
    3.3692    1.6239   -0.3745 C   0  0  0  0  0  0  0  0  0  0  0  0
    3.0258    0.2247   -0.2751 O   0  0  0  0  0  0  0  0  0  0  0  0
    2.0123   -0.3888    0.7702 P   0  0  0  0  0  0  0  0  0  0  0  0
    1.0671    0.9248    1.8825 S   0  0  0  0  0  0  0  0  0  0  0  0
    2.9982   -1.3508    1.5605 O   0  0  0  0  0  0  0  0  0  0  0  0
    2.6371   -2.5664    2.2385 C   0  0  0  0  0  0  0  0  0  0  0  0
    1.4545   -2.3924    3.1690 C   0  0  0  0  0  0  0  0  0  0  0  0
    0.8724   -1.7592   -0.4054 S   0  0  0  0  0  0  0  0  0  0  0  0
    0.6009   -0.7307   -1.8767 C   0  0  0  0  0  0  0  0  0  0  0  0
   -0.0929    0.8970   -1.5141 S   0  0  0  0  0  0  0  0  0  0  0  0
   -2.0677    0.3089   -0.9660 P   0  0  0  0  0  0  0  0  0  0  0  0
   -2.6875   -1.3091   -1.8718 S   0  0  0  0  0  0  0  0  0  0  0  0
   -2.9239    1.5817   -1.3265 O   0  0  0  0  0  0  0  0  0  0  0  0
   -3.0394    2.7810   -0.5201 C   0  0  0  0  0  0  0  0  0  0  0  0
   -1.7020    3.4310   -0.2388 C   0  0  0  0  0  0  0  0  0  0  0  0
   -2.1281    0.2828    0.6240 O   0  0  0  0  0  0  0  0  0  0  0  0
   -2.1206   -0.9082    1.4269 C   0  0  0  0  0  0  0  0  0  0  0  0
   -3.5289   -1.2358    1.8806 C   0  0  0  0  0  0  0  0  0  0  0  0
    2.2562    2.0082   -2.1756 H   0  0  0  0  0  0  0  0  0  0  0  0
    3.6239    3.0938   -1.8933 H   0  0  0  0  0  0  0  0  0  0  0  0
    3.9136    1.4360   -2.4420 H   0  0  0  0  0  0  0  0  0  0  0  0
    2.6919    2.2029    0.2623 H   0  0  0  0  0  0  0  0  0  0  0  0
    4.3885    1.7145    0.0065 H   0  0  0  0  0  0  0  0  0  0  0  0
    2.4237   -3.3272    1.4820 H   0  0  0  0  0  0  0  0  0  0  0  0
    3.5422   -2.8332    2.7870 H   0  0  0  0  0  0  0  0  0  0  0  0
    0.5617   -2.1533    2.5915 H   0  0  0  0  0  0  0  0  0  0  0  0
    1.2847   -3.3149    3.7146 H   0  0  0  0  0  0  0  0  0  0  0  0
    1.6416   -1.5850    3.8733 H   0  0  0  0  0  0  0  0  0  0  0  0
   -0.0954   -1.2921   -2.5018 H   0  0  0  0  0  0  0  0  0  0  0  0
    1.5494   -0.5671   -2.3822 H   0  0  0  0  0  0  0  0  0  0  0  0
   -3.6802    3.4224   -1.1270 H   0  0  0  0  0  0  0  0  0  0  0  0
   -3.5458    2.5181    0.4105 H   0  0  0  0  0  0  0  0  0  0  0  0
   -1.0941    2.7916    0.4006 H   0  0  0  0  0  0  0  0  0  0  0  0
   -1.1655    3.6167   -1.1665 H   0  0  0  0  0  0  0  0  0  0  0  0
   -1.8670    4.3741    0.2730 H   0  0  0  0  0  0  0  0  0  0  0  0
   -1.7019   -1.7385    0.8496 H   0  0  0  0  0  0  0  0  0  0  0  0
   -1.4684   -0.6730    2.2716 H   0  0  0  0  0  0  0  0  0  0  0  0
   -4.1539   -1.4504    1.0158 H   0  0  0  0  0  0  0  0  0  0  0  0
   -3.5016   -2.1088    2.5244 H   0  0  0  0  0  0  0  0  0  0  0  0
   -3.9528   -0.3979    2.4269 H   0  0  0  0  0  0  0  0  0  0  0  0
  1  2  1  0  0  0  0
  2  3  1  0  0  0  0
  3  4  2  0  0  0  0
  4  5  2  0  0  0  0
  4  6  2  0  0  0  0
  6  7  1  0  0  0  0
  7  8  1  0  0  0  0
  4  9  1  0  0  0  0
  9 10  1  0  0  0  0
 10 11  1  0  0  0  0
 11 12  1  0  0  0  0
 12 13  2  0  0  0  0
 12 14  2  0  0  0  0
 14 15  1  0  0  0  0
 15 16  1  0  0  0  0
 12 17  2  0  0  0  0
 17 18  1  0  0  0  0
 18 19  1  0  0  0  0
  1 20  1  0  0  0  0
  1 21  1  0  0  0  0
  1 22  1  0  0  0  0
  2 23  1  0  0  0  0
  2 24  1  0  0  0  0
  7 25  1  0  0  0  0
  7 26  1  0  0  0  0
  8 27  1  0  0  0  0
  8 28  1  0  0  0  0
  8 29  1  0  0  0  0
 10 30  1  0  0  0  0
 10 31  1  0  0  0  0
 15 32  1  0  0  0  0
 15 33  1  0  0  0  0
 16 34  1  0  0  0  0
 16 35  1  0  0  0  0
 16 36  1  0  0  0  0
 18 37  1  0  0  0  0
 18 38  1  0  0  0  0
 19 39  1  0  0  0  0
 19 40  1  0  0  0  0
 19 41  1  0  0  0  0
M  END
