 xtb: 6.7.1 (edcfbbe)
          04092505203D

 41 40  0     0  0            999 V2000
    2.4073   -2.7200   -1.8120 C   0  0  0  0  0  0  0  0  0  0  0  0
    3.5441   -2.2227   -0.9455 C   0  0  0  0  0  0  0  0  0  0  0  0
    3.5428   -0.7808   -0.8050 O   0  0  0  0  0  0  0  0  0  0  0  0
    2.4124    0.0856   -0.1299 P   0  0  0  0  0  0  0  0  0  0  0  0
    3.0803    1.8127    0.4961 S   0  0  0  0  0  0  0  0  0  0  0  0
    1.8399   -0.8868    0.9957 O   0  0  0  0  0  0  0  0  0  0  0  0
    1.3656   -0.4626    2.2858 C   0  0  0  0  0  0  0  0  0  0  0  0
    2.1489   -1.1900    3.3605 C   0  0  0  0  0  0  0  0  0  0  0  0
    0.9069    0.2049   -1.6423 S   0  0  0  0  0  0  0  0  0  0  0  0
    0.1646    1.7726   -1.1359 C   0  0  0  0  0  0  0  0  0  0  0  0
   -0.6290    1.6889    0.4906 S   0  0  0  0  0  0  0  0  0  0  0  0
   -2.0574    0.2047   -0.0124 P   0  0  0  0  0  0  0  0  0  0  0  0
   -2.7994    0.2682   -1.8299 S   0  0  0  0  0  0  0  0  0  0  0  0
   -3.0735    0.2533    1.2064 O   0  0  0  0  0  0  0  0  0  0  0  0
   -3.7423    1.4263    1.7042 C   0  0  0  0  0  0  0  0  0  0  0  0
   -4.4391    2.2173    0.6167 C   0  0  0  0  0  0  0  0  0  0  0  0
   -1.2756   -1.1314    0.3378 O   0  0  0  0  0  0  0  0  0  0  0  0
   -1.5468   -2.3786   -0.3293 C   0  0  0  0  0  0  0  0  0  0  0  0
   -2.8813   -2.9489    0.1019 C   0  0  0  0  0  0  0  0  0  0  0  0
    2.5085   -3.7913   -1.9545 H   0  0  0  0  0  0  0  0  0  0  0  0
    1.4523   -2.5134   -1.3323 H   0  0  0  0  0  0  0  0  0  0  0  0
    2.4221   -2.2255   -2.7802 H   0  0  0  0  0  0  0  0  0  0  0  0
    4.5155   -2.4253   -1.3988 H   0  0  0  0  0  0  0  0  0  0  0  0
    3.4976   -2.6639    0.0519 H   0  0  0  0  0  0  0  0  0  0  0  0
    1.4916    0.6215    2.3768 H   0  0  0  0  0  0  0  0  0  0  0  0
    0.3018   -0.7091    2.3256 H   0  0  0  0  0  0  0  0  0  0  0  0
    2.0508   -2.2647    3.2361 H   0  0  0  0  0  0  0  0  0  0  0  0
    3.2006   -0.9192    3.3011 H   0  0  0  0  0  0  0  0  0  0  0  0
    1.7633   -0.9043    4.3337 H   0  0  0  0  0  0  0  0  0  0  0  0
   -0.5785    2.0185   -1.8940 H   0  0  0  0  0  0  0  0  0  0  0  0
    0.9345    2.5401   -1.0623 H   0  0  0  0  0  0  0  0  0  0  0  0
   -4.4567    1.0266    2.4263 H   0  0  0  0  0  0  0  0  0  0  0  0
   -3.0019    2.0457    2.2185 H   0  0  0  0  0  0  0  0  0  0  0  0
   -5.1209    1.5796    0.0590 H   0  0  0  0  0  0  0  0  0  0  0  0
   -4.9965    3.0331    1.0657 H   0  0  0  0  0  0  0  0  0  0  0  0
   -3.7070    2.6290   -0.0769 H   0  0  0  0  0  0  0  0  0  0  0  0
   -1.5253   -2.2099   -1.4112 H   0  0  0  0  0  0  0  0  0  0  0  0
   -0.7164   -3.0230   -0.0365 H   0  0  0  0  0  0  0  0  0  0  0  0
   -3.0356   -3.9116   -0.3748 H   0  0  0  0  0  0  0  0  0  0  0  0
   -2.9097   -3.0670    1.1818 H   0  0  0  0  0  0  0  0  0  0  0  0
   -3.6798   -2.2706   -0.1974 H   0  0  0  0  0  0  0  0  0  0  0  0
  1  2  1  0  0  0  0
  2  3  1  0  0  0  0
  3  4  2  0  0  0  0
  4  5  2  0  0  0  0
  4  6  2  0  0  0  0
  6  7  1  0  0  0  0
  7  8  1  0  0  0  0
  4  9  1  0  0  0  0
  9 10  1  0  0  0  0
 10 11  1  0  0  0  0
 11 12  1  0  0  0  0
 12 13  2  0  0  0  0
 12 14  2  0  0  0  0
 14 15  1  0  0  0  0
 15 16  1  0  0  0  0
 12 17  2  0  0  0  0
 17 18  1  0  0  0  0
 18 19  1  0  0  0  0
  1 20  1  0  0  0  0
  1 21  1  0  0  0  0
  1 22  1  0  0  0  0
  2 23  1  0  0  0  0
  2 24  1  0  0  0  0
  7 25  1  0  0  0  0
  7 26  1  0  0  0  0
  8 27  1  0  0  0  0
  8 28  1  0  0  0  0
  8 29  1  0  0  0  0
 10 30  1  0  0  0  0
 10 31  1  0  0  0  0
 15 32  1  0  0  0  0
 15 33  1  0  0  0  0
 16 34  1  0  0  0  0
 16 35  1  0  0  0  0
 16 36  1  0  0  0  0
 18 37  1  0  0  0  0
 18 38  1  0  0  0  0
 19 39  1  0  0  0  0
 19 40  1  0  0  0  0
 19 41  1  0  0  0  0
M  END
