 xtb: 6.7.1 (edcfbbe)
          04032519413D

 19 20  0     0  0            999 V2000
   -2.5936    1.4079   -0.0000 C   0  0  0  0  0  0  0  0  0  0  0  0
   -1.6081    0.2897   -0.0000 C   0  0  0  0  0  0  0  0  0  0  0  0
   -1.8691   -1.0487   -0.0000 C   0  0  0  0  0  0  0  0  0  0  0  0
   -0.7010   -1.7655    0.0002 N   0  0  0  0  0  0  0  0  0  0  0  0
    0.3470   -0.8949   -0.0001 C   0  0  0  0  0  0  0  0  0  0  0  0
   -0.1848    0.4196   -0.0000 C   0  0  0  0  0  0  0  0  0  0  0  0
    0.6851    1.5097    0.0000 C   0  0  0  0  0  0  0  0  0  0  0  0
    2.0411    1.2723    0.0000 C   0  0  0  0  0  0  0  0  0  0  0  0
    2.5516   -0.0295   -0.0000 C   0  0  0  0  0  0  0  0  0  0  0  0
    1.7173   -1.1264   -0.0000 C   0  0  0  0  0  0  0  0  0  0  0  0
   -3.6080    1.0180    0.0005 H   0  0  0  0  0  0  0  0  0  0  0  0
   -2.4578    2.0352    0.8804 H   0  0  0  0  0  0  0  0  0  0  0  0
   -2.4585    2.0346   -0.8810 H   0  0  0  0  0  0  0  0  0  0  0  0
   -2.8177   -1.5501    0.0001 H   0  0  0  0  0  0  0  0  0  0  0  0
   -0.6324   -2.7684   -0.0009 H   0  0  0  0  0  0  0  0  0  0  0  0
    0.2989    2.5184   -0.0000 H   0  0  0  0  0  0  0  0  0  0  0  0
    2.7313    2.1038    0.0001 H   0  0  0  0  0  0  0  0  0  0  0  0
    3.6222   -0.1733    0.0001 H   0  0  0  0  0  0  0  0  0  0  0  0
    2.1144   -2.1306   -0.0000 H   0  0  0  0  0  0  0  0  0  0  0  0
  1  2  1  0  0  0  0
  2  3  2  0  0  0  0
  3  4  1  0  0  0  0
  4  5  1  0  0  0  0
  2  6  4  0  0  0  0
  5  6  4  0  0  0  0
  6  7  4  0  0  0  0
  7  8  2  0  0  0  0
  8  9  4  0  0  0  0
  5 10  4  0  0  0  0
  9 10  4  0  0  0  0
  1 11  1  0  0  0  0
  1 12  1  0  0  0  0
  1 13  1  0  0  0  0
  3 14  1  0  0  0  0
  4 15  1  0  0  0  0
  7 16  1  0  0  0  0
  8 17  1  0  0  0  0
  9 18  1  0  0  0  0
 10 19  1  0  0  0  0
M  END
