 xtb: 6.7.1 (edcfbbe)
          04032519423D

 20 20  0     0  0            999 V2000
    0.8462    1.2966   -0.9893 C   0  0  0  0  0  0  0  0  0  0  0  0
    1.4335    0.3069    0.0231 C   0  0  0  0  0  0  0  0  0  0  0  0
    2.4447    0.0445   -0.3039 H   0  0  0  0  0  0  0  0  0  0  0  0
    0.6051   -0.9958    0.0451 C   0  0  0  0  0  0  0  0  0  0  0  0
    0.5389   -1.3459    1.0848 H   0  0  0  0  0  0  0  0  0  0  0  0
   -0.8309   -0.7569   -0.4565 C   0  0  0  0  0  0  0  0  0  0  0  0
   -0.8260   -0.8144   -1.5562 H   0  0  0  0  0  0  0  0  0  0  0  0
   -1.2871    0.6614   -0.0798 C   0  0  0  0  0  0  0  0  0  0  0  0
   -2.3183    0.8274   -0.4269 H   0  0  0  0  0  0  0  0  0  0  0  0
   -0.5200    1.6330   -0.7396 O   0  0  0  0  0  0  0  0  0  0  0  0
   -1.2196    0.8113    1.3111 O   0  0  0  0  0  0  0  0  0  0  0  0
   -1.6462   -1.7569    0.0934 O   0  0  0  0  0  0  0  0  0  0  0  0
    1.2669   -1.9428   -0.7571 O   0  0  0  0  0  0  0  0  0  0  0  0
    1.5784    0.8705    1.2994 O   0  0  0  0  0  0  0  0  0  0  0  0
    0.9341    0.8678   -1.9938 H   0  0  0  0  0  0  0  0  0  0  0  0
    1.3902    2.2415   -0.9457 H   0  0  0  0  0  0  0  0  0  0  0  0
   -1.6654    1.6307    1.5766 H   0  0  0  0  0  0  0  0  0  0  0  0
   -2.5573   -1.6644   -0.2200 H   0  0  0  0  0  0  0  0  0  0  0  0
    0.8156   -2.7958   -0.6776 H   0  0  0  0  0  0  0  0  0  0  0  0
    0.6863    1.0133    1.6680 H   0  0  0  0  0  0  0  0  0  0  0  0
  1  2  1  0  0  0  0
  2  3  1  0  0  0  0
  2  4  1  0  0  0  0
  4  5  1  0  0  0  0
  4  6  1  0  0  0  0
  6  7  1  0  0  0  0
  6  8  1  0  0  0  0
  8  9  1  0  0  0  0
  1 10  1  0  0  0  0
  8 10  1  0  0  0  0
  8 11  1  0  0  0  0
  6 12  1  0  0  0  0
  4 13  1  0  0  0  0
  2 14  1  0  0  0  0
  1 15  1  0  0  0  0
  1 16  1  0  0  0  0
 11 17  1  0  0  0  0
 12 18  1  0  0  0  0
 13 19  1  0  0  0  0
 14 20  1  0  0  0  0
M  END
