 xtb: 6.7.1 (edcfbbe)
          04092505213D

 41 40  0     0  0            999 V2000
    5.1143   -1.3620   -0.2093 C   0  0  0  0  0  0  0  0  0  0  0  0
    4.6107   -0.4492   -1.3070 C   0  0  0  0  0  0  0  0  0  0  0  0
    3.1791   -0.2764   -1.2454 O   0  0  0  0  0  0  0  0  0  0  0  0
    2.4854    0.5300   -0.0691 P   0  0  0  0  0  0  0  0  0  0  0  0
    3.4709    2.0487    0.6728 S   0  0  0  0  0  0  0  0  0  0  0  0
    2.1258   -0.6432    0.9454 O   0  0  0  0  0  0  0  0  0  0  0  0
    1.7534   -0.4059    2.3176 C   0  0  0  0  0  0  0  0  0  0  0  0
    2.9301   -0.6796    3.2335 C   0  0  0  0  0  0  0  0  0  0  0  0
    0.6599    1.0106   -1.0293 S   0  0  0  0  0  0  0  0  0  0  0  0
    0.0265   -0.6889   -1.2195 C   0  0  0  0  0  0  0  0  0  0  0  0
   -1.0310   -1.1854    0.1501 S   0  0  0  0  0  0  0  0  0  0  0  0
   -2.7434   -0.0710   -0.4749 P   0  0  0  0  0  0  0  0  0  0  0  0
   -3.0518   -0.1298   -2.4096 S   0  0  0  0  0  0  0  0  0  0  0  0
   -2.5943    1.4380   -0.0439 O   0  0  0  0  0  0  0  0  0  0  0  0
   -2.7072    1.9814    1.2928 C   0  0  0  0  0  0  0  0  0  0  0  0
   -1.4763    1.7014    2.1307 C   0  0  0  0  0  0  0  0  0  0  0  0
   -3.8841   -0.5772    0.5047 O   0  0  0  0  0  0  0  0  0  0  0  0
   -4.1755   -1.9587    0.7941 C   0  0  0  0  0  0  0  0  0  0  0  0
   -4.4706   -2.7669   -0.4515 C   0  0  0  0  0  0  0  0  0  0  0  0
    4.9646   -0.8889    0.7596 H   0  0  0  0  0  0  0  0  0  0  0  0
    4.5780   -2.3070   -0.2287 H   0  0  0  0  0  0  0  0  0  0  0  0
    6.1747   -1.5447   -0.3531 H   0  0  0  0  0  0  0  0  0  0  0  0
    4.7794   -0.8705   -2.2990 H   0  0  0  0  0  0  0  0  0  0  0  0
    5.0807    0.5368   -1.2365 H   0  0  0  0  0  0  0  0  0  0  0  0
    1.4137    0.6270    2.4299 H   0  0  0  0  0  0  0  0  0  0  0  0
    0.9259   -1.0924    2.5069 H   0  0  0  0  0  0  0  0  0  0  0  0
    2.6094   -0.5773    4.2650 H   0  0  0  0  0  0  0  0  0  0  0  0
    3.3055   -1.6859    3.0713 H   0  0  0  0  0  0  0  0  0  0  0  0
    3.7268    0.0356    3.0394 H   0  0  0  0  0  0  0  0  0  0  0  0
    0.8602   -1.3829   -1.2690 H   0  0  0  0  0  0  0  0  0  0  0  0
   -0.5629   -0.7013   -2.1383 H   0  0  0  0  0  0  0  0  0  0  0  0
   -2.8315    3.0509    1.1159 H   0  0  0  0  0  0  0  0  0  0  0  0
   -3.6053    1.5735    1.7594 H   0  0  0  0  0  0  0  0  0  0  0  0
   -1.5525    2.2486    3.0651 H   0  0  0  0  0  0  0  0  0  0  0  0
   -1.3927    0.6389    2.3473 H   0  0  0  0  0  0  0  0  0  0  0  0
   -0.5843    2.0304    1.6001 H   0  0  0  0  0  0  0  0  0  0  0  0
   -3.3245   -2.3800    1.3358 H   0  0  0  0  0  0  0  0  0  0  0  0
   -5.0460   -1.9038    1.4500 H   0  0  0  0  0  0  0  0  0  0  0  0
   -5.2736   -2.3063   -1.0221 H   0  0  0  0  0  0  0  0  0  0  0  0
   -3.5867   -2.8174   -1.0855 H   0  0  0  0  0  0  0  0  0  0  0  0
   -4.7618   -3.7731   -0.1681 H   0  0  0  0  0  0  0  0  0  0  0  0
  1  2  1  0  0  0  0
  2  3  1  0  0  0  0
  3  4  2  0  0  0  0
  4  5  2  0  0  0  0
  4  6  2  0  0  0  0
  6  7  1  0  0  0  0
  7  8  1  0  0  0  0
  4  9  1  0  0  0  0
  9 10  1  0  0  0  0
 10 11  1  0  0  0  0
 11 12  1  0  0  0  0
 12 13  2  0  0  0  0
 12 14  2  0  0  0  0
 14 15  1  0  0  0  0
 15 16  1  0  0  0  0
 12 17  2  0  0  0  0
 17 18  1  0  0  0  0
 18 19  1  0  0  0  0
  1 20  1  0  0  0  0
  1 21  1  0  0  0  0
  1 22  1  0  0  0  0
  2 23  1  0  0  0  0
  2 24  1  0  0  0  0
  7 25  1  0  0  0  0
  7 26  1  0  0  0  0
  8 27  1  0  0  0  0
  8 28  1  0  0  0  0
  8 29  1  0  0  0  0
 10 30  1  0  0  0  0
 10 31  1  0  0  0  0
 15 32  1  0  0  0  0
 15 33  1  0  0  0  0
 16 34  1  0  0  0  0
 16 35  1  0  0  0  0
 16 36  1  0  0  0  0
 18 37  1  0  0  0  0
 18 38  1  0  0  0  0
 19 39  1  0  0  0  0
 19 40  1  0  0  0  0
 19 41  1  0  0  0  0
M  END
