 xtb: 6.7.1 (edcfbbe)
          04092505213D

 41 40  0     0  0            999 V2000
    2.2849   -1.4514   -3.3105 C   0  0  0  0  0  0  0  0  0  0  0  0
    2.9289   -0.4538   -2.3685 C   0  0  0  0  0  0  0  0  0  0  0  0
    2.6436   -0.8476   -1.0067 O   0  0  0  0  0  0  0  0  0  0  0  0
    2.0788    0.1141    0.1099 P   0  0  0  0  0  0  0  0  0  0  0  0
    1.1846    1.7439   -0.5478 S   0  0  0  0  0  0  0  0  0  0  0  0
    3.3892    0.4600    0.9462 O   0  0  0  0  0  0  0  0  0  0  0  0
    3.4387    1.5273    1.9051 C   0  0  0  0  0  0  0  0  0  0  0  0
    2.5675    1.2439    3.1125 C   0  0  0  0  0  0  0  0  0  0  0  0
    1.1485   -1.3212    1.3346 S   0  0  0  0  0  0  0  0  0  0  0  0
    0.0719   -2.1462    0.1145 C   0  0  0  0  0  0  0  0  0  0  0  0
   -0.7656   -1.0567   -1.0661 S   0  0  0  0  0  0  0  0  0  0  0  0
   -1.9121    0.3089    0.1117 P   0  0  0  0  0  0  0  0  0  0  0  0
   -1.3888    0.8189    1.9263 S   0  0  0  0  0  0  0  0  0  0  0  0
   -3.3922   -0.2961    0.0496 O   0  0  0  0  0  0  0  0  0  0  0  0
   -4.0341   -0.9813    1.1328 C   0  0  0  0  0  0  0  0  0  0  0  0
   -3.4002   -2.3278    1.4200 C   0  0  0  0  0  0  0  0  0  0  0  0
   -2.0368    1.5656   -0.8245 O   0  0  0  0  0  0  0  0  0  0  0  0
   -2.0386    1.6107   -2.2690 C   0  0  0  0  0  0  0  0  0  0  0  0
   -3.1429    0.7743   -2.8780 C   0  0  0  0  0  0  0  0  0  0  0  0
    2.5233   -1.1768   -4.3328 H   0  0  0  0  0  0  0  0  0  0  0  0
    2.6629   -2.4496   -3.1097 H   0  0  0  0  0  0  0  0  0  0  0  0
    1.2049   -1.4480   -3.1807 H   0  0  0  0  0  0  0  0  0  0  0  0
    2.5431    0.5584   -2.5311 H   0  0  0  0  0  0  0  0  0  0  0  0
    4.0157   -0.4480   -2.4693 H   0  0  0  0  0  0  0  0  0  0  0  0
    4.4938    1.5909    2.1744 H   0  0  0  0  0  0  0  0  0  0  0  0
    3.1233    2.4528    1.4114 H   0  0  0  0  0  0  0  0  0  0  0  0
    2.8227    0.2800    3.5461 H   0  0  0  0  0  0  0  0  0  0  0  0
    2.7099    2.0234    3.8540 H   0  0  0  0  0  0  0  0  0  0  0  0
    1.5150    1.2277    2.8240 H   0  0  0  0  0  0  0  0  0  0  0  0
   -0.6508   -2.7173    0.6922 H   0  0  0  0  0  0  0  0  0  0  0  0
    0.6797   -2.8033   -0.5051 H   0  0  0  0  0  0  0  0  0  0  0  0
   -3.9956   -0.3441    2.0218 H   0  0  0  0  0  0  0  0  0  0  0  0
   -5.0662   -1.0857    0.7951 H   0  0  0  0  0  0  0  0  0  0  0  0
   -2.4158   -2.1782    1.8626 H   0  0  0  0  0  0  0  0  0  0  0  0
   -4.0174   -2.8716    2.1281 H   0  0  0  0  0  0  0  0  0  0  0  0
   -3.3113   -2.9057    0.5031 H   0  0  0  0  0  0  0  0  0  0  0  0
   -2.1694    2.6732   -2.4806 H   0  0  0  0  0  0  0  0  0  0  0  0
   -1.0527    1.2935   -2.6199 H   0  0  0  0  0  0  0  0  0  0  0  0
   -4.1059    1.0783   -2.4763 H   0  0  0  0  0  0  0  0  0  0  0  0
   -3.1392    0.9158   -3.9542 H   0  0  0  0  0  0  0  0  0  0  0  0
   -2.9851   -0.2793   -2.6570 H   0  0  0  0  0  0  0  0  0  0  0  0
  1  2  1  0  0  0  0
  2  3  1  0  0  0  0
  3  4  2  0  0  0  0
  4  5  2  0  0  0  0
  4  6  2  0  0  0  0
  6  7  1  0  0  0  0
  7  8  1  0  0  0  0
  4  9  1  0  0  0  0
  9 10  1  0  0  0  0
 10 11  1  0  0  0  0
 11 12  1  0  0  0  0
 12 13  2  0  0  0  0
 12 14  1  0  0  0  0
 14 15  1  0  0  0  0
 15 16  1  0  0  0  0
 12 17  2  0  0  0  0
 17 18  1  0  0  0  0
 18 19  1  0  0  0  0
  1 20  1  0  0  0  0
  1 21  1  0  0  0  0
  1 22  1  0  0  0  0
  2 23  1  0  0  0  0
  2 24  1  0  0  0  0
  7 25  1  0  0  0  0
  7 26  1  0  0  0  0
  8 27  1  0  0  0  0
  8 28  1  0  0  0  0
  8 29  1  0  0  0  0
 10 30  1  0  0  0  0
 10 31  1  0  0  0  0
 15 32  1  0  0  0  0
 15 33  1  0  0  0  0
 16 34  1  0  0  0  0
 16 35  1  0  0  0  0
 16 36  1  0  0  0  0
 18 37  1  0  0  0  0
 18 38  1  0  0  0  0
 19 39  1  0  0  0  0
 19 40  1  0  0  0  0
 19 41  1  0  0  0  0
M  END
