 xtb: 6.7.1 (edcfbbe)
          04092507313D

 38 37  0     0  0            999 V2000
    2.8775   -4.2392    0.2019 C   0  0  0  0  0  0  0  0  0  0  0  0
    2.7179   -3.4884   -1.1102 C   0  0  0  0  0  0  0  0  0  0  0  0
    2.7688   -2.0623   -0.8981 O   0  0  0  0  0  0  0  0  0  0  0  0
    1.6744   -1.4413   -0.5311 C   0  0  0  0  0  0  0  0  0  0  0  0
    0.5939   -1.9799   -0.3875 O   0  0  0  0  0  0  0  0  0  0  0  0
    1.9146    0.0290   -0.2823 C   0  0  0  0  0  0  0  0  0  0  0  0
    0.9522    0.9510   -1.0552 C   0  0  0  0  0  0  0  0  0  0  0  0
    1.4199    1.3058   -1.9746 H   0  0  0  0  0  0  0  0  0  0  0  0
    0.5940    2.1307   -0.1626 C   0  0  0  0  0  0  0  0  0  0  0  0
   -0.4806    2.2420    0.3847 O   0  0  0  0  0  0  0  0  0  0  0  0
    1.6027    2.9529   -0.0339 O   0  0  0  0  0  0  0  0  0  0  0  0
    1.4421    4.1097    0.8176 C   0  0  0  0  0  0  0  0  0  0  0  0
    0.7891    5.2531    0.0591 C   0  0  0  0  0  0  0  0  0  0  0  0
   -0.6124    0.1939   -1.6235 S   0  0  0  0  0  0  0  0  0  0  0  0
   -1.5048   -0.3165    0.2123 P   0  0  0  0  0  0  0  0  0  0  0  0
   -0.6478   -0.3672    1.9846 S   0  0  0  0  0  0  0  0  0  0  0  0
   -2.7383    0.6930    0.0864 O   0  0  0  0  0  0  0  0  0  0  0  0
   -3.6913    0.8413    1.1411 C   0  0  0  0  0  0  0  0  0  0  0  0
   -2.3113   -1.6685   -0.0980 O   0  0  0  0  0  0  0  0  0  0  0  0
   -1.9450   -2.9842    0.3088 C   0  0  0  0  0  0  0  0  0  0  0  0
    2.8813   -5.3064    0.0071 H   0  0  0  0  0  0  0  0  0  0  0  0
    3.8102   -3.9587    0.6832 H   0  0  0  0  0  0  0  0  0  0  0  0
    2.0519   -4.0058    0.8709 H   0  0  0  0  0  0  0  0  0  0  0  0
    1.7659   -3.7360   -1.5876 H   0  0  0  0  0  0  0  0  0  0  0  0
    3.5474   -3.6883   -1.7880 H   0  0  0  0  0  0  0  0  0  0  0  0
    2.9454    0.2735   -0.5321 H   0  0  0  0  0  0  0  0  0  0  0  0
    1.7599    0.1677    0.7935 H   0  0  0  0  0  0  0  0  0  0  0  0
    0.8413    3.8225    1.6849 H   0  0  0  0  0  0  0  0  0  0  0  0
    2.4584    4.3593    1.1215 H   0  0  0  0  0  0  0  0  0  0  0  0
   -0.2206    4.9776   -0.2376 H   0  0  0  0  0  0  0  0  0  0  0  0
    0.7405    6.1262    0.7014 H   0  0  0  0  0  0  0  0  0  0  0  0
    1.3672    5.4920   -0.8290 H   0  0  0  0  0  0  0  0  0  0  0  0
   -4.2664    1.7295    0.8926 H   0  0  0  0  0  0  0  0  0  0  0  0
   -3.1761    0.9765    2.0944 H   0  0  0  0  0  0  0  0  0  0  0  0
   -4.3360   -0.0367    1.1900 H   0  0  0  0  0  0  0  0  0  0  0  0
   -1.3631   -3.4587   -0.4780 H   0  0  0  0  0  0  0  0  0  0  0  0
   -2.8783   -3.5166    0.4784 H   0  0  0  0  0  0  0  0  0  0  0  0
   -1.3551   -2.9415    1.2260 H   0  0  0  0  0  0  0  0  0  0  0  0
  1  2  1  0  0  0  0
  2  3  1  0  0  0  0
  3  4  4  0  0  0  0
  4  5  2  0  0  0  0
  4  6  1  0  0  0  0
  6  7  1  0  0  0  0
  7  8  1  0  0  0  0
  7  9  1  0  0  0  0
  9 10  2  0  0  0  0
  9 11  4  0  0  0  0
 11 12  1  0  0  0  0
 12 13  1  0  0  0  0
  7 14  1  0  0  0  0
 14 15  1  0  0  0  0
 15 16  2  0  0  0  0
 15 17  1  0  0  0  0
 17 18  1  0  0  0  0
 15 19  1  0  0  0  0
 19 20  1  0  0  0  0
  1 21  1  0  0  0  0
  1 22  1  0  0  0  0
  1 23  1  0  0  0  0
  2 24  1  0  0  0  0
  2 25  1  0  0  0  0
  6 26  1  0  0  0  0
  6 27  1  0  0  0  0
 12 28  1  0  0  0  0
 12 29  1  0  0  0  0
 13 30  1  0  0  0  0
 13 31  1  0  0  0  0
 13 32  1  0  0  0  0
 18 33  1  0  0  0  0
 18 34  1  0  0  0  0
 18 35  1  0  0  0  0
 20 36  1  0  0  0  0
 20 37  1  0  0  0  0
 20 38  1  0  0  0  0
M  END
