 xtb: 6.7.1 (edcfbbe)
          04092505213D

 41 40  0     0  0            999 V2000
    1.8348    3.0967   -0.9135 C   0  0  0  0  0  0  0  0  0  0  0  0
    2.0816    1.6034   -0.9491 C   0  0  0  0  0  0  0  0  0  0  0  0
    2.0178    1.1243    0.4191 O   0  0  0  0  0  0  0  0  0  0  0  0
    2.3113   -0.3593    0.8592 P   0  0  0  0  0  0  0  0  0  0  0  0
    2.1654   -0.5043    2.8028 S   0  0  0  0  0  0  0  0  0  0  0  0
    3.7275   -0.6111    0.1825 O   0  0  0  0  0  0  0  0  0  0  0  0
    4.3210   -1.8998   -0.0626 C   0  0  0  0  0  0  0  0  0  0  0  0
    4.3953   -2.7581    1.1826 C   0  0  0  0  0  0  0  0  0  0  0  0
    1.0216   -1.6357   -0.2660 S   0  0  0  0  0  0  0  0  0  0  0  0
   -0.3867   -1.5311    0.8681 C   0  0  0  0  0  0  0  0  0  0  0  0
   -1.0634    0.1380    1.0588 S   0  0  0  0  0  0  0  0  0  0  0  0
   -2.1444    0.2098   -0.7970 P   0  0  0  0  0  0  0  0  0  0  0  0
   -1.1138    0.0322   -2.4483 S   0  0  0  0  0  0  0  0  0  0  0  0
   -3.0112    1.5254   -0.6014 O   0  0  0  0  0  0  0  0  0  0  0  0
   -2.4483    2.8371   -0.4068 C   0  0  0  0  0  0  0  0  0  0  0  0
   -2.0266    3.4701   -1.7181 C   0  0  0  0  0  0  0  0  0  0  0  0
   -3.2137   -0.9415   -0.6975 O   0  0  0  0  0  0  0  0  0  0  0  0
   -4.2408   -1.0030    0.3247 C   0  0  0  0  0  0  0  0  0  0  0  0
   -5.5420   -0.4278   -0.1956 C   0  0  0  0  0  0  0  0  0  0  0  0
    0.8705    3.3040   -0.4578 H   0  0  0  0  0  0  0  0  0  0  0  0
    2.6086    3.5890   -0.3316 H   0  0  0  0  0  0  0  0  0  0  0  0
    1.8427    3.4808   -1.9285 H   0  0  0  0  0  0  0  0  0  0  0  0
    3.0669    1.3668   -1.3540 H   0  0  0  0  0  0  0  0  0  0  0  0
    1.3179    1.0831   -1.5371 H   0  0  0  0  0  0  0  0  0  0  0  0
    3.7406   -2.3985   -0.8441 H   0  0  0  0  0  0  0  0  0  0  0  0
    5.3159   -1.6554   -0.4394 H   0  0  0  0  0  0  0  0  0  0  0  0
    4.9136   -2.2278    1.9780 H   0  0  0  0  0  0  0  0  0  0  0  0
    3.3928   -3.0030    1.5304 H   0  0  0  0  0  0  0  0  0  0  0  0
    4.9264   -3.6768    0.9555 H   0  0  0  0  0  0  0  0  0  0  0  0
   -0.0610   -1.8306    1.8647 H   0  0  0  0  0  0  0  0  0  0  0  0
   -1.1486   -2.2016    0.4767 H   0  0  0  0  0  0  0  0  0  0  0  0
   -3.2546    3.4030    0.0643 H   0  0  0  0  0  0  0  0  0  0  0  0
   -1.6077    2.7600    0.2893 H   0  0  0  0  0  0  0  0  0  0  0  0
   -1.6635    4.4756   -1.5305 H   0  0  0  0  0  0  0  0  0  0  0  0
   -1.2380    2.8860   -2.1869 H   0  0  0  0  0  0  0  0  0  0  0  0
   -2.8724    3.5152   -2.3988 H   0  0  0  0  0  0  0  0  0  0  0  0
   -4.3407   -2.0666    0.5499 H   0  0  0  0  0  0  0  0  0  0  0  0
   -3.8946   -0.4657    1.2116 H   0  0  0  0  0  0  0  0  0  0  0  0
   -5.8466   -0.9534   -1.0965 H   0  0  0  0  0  0  0  0  0  0  0  0
   -6.3095   -0.5421    0.5635 H   0  0  0  0  0  0  0  0  0  0  0  0
   -5.4211    0.6262   -0.4298 H   0  0  0  0  0  0  0  0  0  0  0  0
  1  2  1  0  0  0  0
  2  3  1  0  0  0  0
  3  4  2  0  0  0  0
  4  5  2  0  0  0  0
  4  6  2  0  0  0  0
  6  7  1  0  0  0  0
  7  8  1  0  0  0  0
  4  9  1  0  0  0  0
  9 10  1  0  0  0  0
 10 11  1  0  0  0  0
 11 12  1  0  0  0  0
 12 13  2  0  0  0  0
 12 14  2  0  0  0  0
 14 15  1  0  0  0  0
 15 16  1  0  0  0  0
 12 17  2  0  0  0  0
 17 18  1  0  0  0  0
 18 19  1  0  0  0  0
  1 20  1  0  0  0  0
  1 21  1  0  0  0  0
  1 22  1  0  0  0  0
  2 23  1  0  0  0  0
  2 24  1  0  0  0  0
  7 25  1  0  0  0  0
  7 26  1  0  0  0  0
  8 27  1  0  0  0  0
  8 28  1  0  0  0  0
  8 29  1  0  0  0  0
 10 30  1  0  0  0  0
 10 31  1  0  0  0  0
 15 32  1  0  0  0  0
 15 33  1  0  0  0  0
 16 34  1  0  0  0  0
 16 35  1  0  0  0  0
 16 36  1  0  0  0  0
 18 37  1  0  0  0  0
 18 38  1  0  0  0  0
 19 39  1  0  0  0  0
 19 40  1  0  0  0  0
 19 41  1  0  0  0  0
M  END
