 xtb: 6.7.1 (edcfbbe)
          04092505203D

 41 40  0     0  0            999 V2000
    3.0050    2.5518    1.7297 C   0  0  0  0  0  0  0  0  0  0  0  0
    1.8587    2.0907    0.8528 C   0  0  0  0  0  0  0  0  0  0  0  0
    1.2720    0.8773    1.3765 O   0  0  0  0  0  0  0  0  0  0  0  0
    1.5927   -0.5569    0.8100 P   0  0  0  0  0  0  0  0  0  0  0  0
    0.7523   -1.9613    1.8805 S   0  0  0  0  0  0  0  0  0  0  0  0
    3.1880   -0.5140    0.8048 O   0  0  0  0  0  0  0  0  0  0  0  0
    4.0385   -1.5127    0.2137 C   0  0  0  0  0  0  0  0  0  0  0  0
    4.1731   -2.7429    1.0895 C   0  0  0  0  0  0  0  0  0  0  0  0
    1.1927   -0.6139   -1.2843 S   0  0  0  0  0  0  0  0  0  0  0  0
   -0.2455   -1.7102   -1.3091 C   0  0  0  0  0  0  0  0  0  0  0  0
   -1.7953   -0.9373   -1.8735 S   0  0  0  0  0  0  0  0  0  0  0  0
   -1.9537    0.6995   -0.5360 P   0  0  0  0  0  0  0  0  0  0  0  0
   -3.6980    1.5832   -0.4831 S   0  0  0  0  0  0  0  0  0  0  0  0
   -0.7321    1.6663   -0.8606 O   0  0  0  0  0  0  0  0  0  0  0  0
   -0.8293    2.6888   -1.8707 C   0  0  0  0  0  0  0  0  0  0  0  0
   -0.7857    2.1141   -3.2730 C   0  0  0  0  0  0  0  0  0  0  0  0
   -1.3892    0.1417    0.8438 O   0  0  0  0  0  0  0  0  0  0  0  0
   -2.2908   -0.2662    1.8897 C   0  0  0  0  0  0  0  0  0  0  0  0
   -2.9612   -1.5888    1.5774 C   0  0  0  0  0  0  0  0  0  0  0  0
    3.3859    3.4946    1.3497 H   0  0  0  0  0  0  0  0  0  0  0  0
    2.6590    2.6895    2.7505 H   0  0  0  0  0  0  0  0  0  0  0  0
    3.8020    1.8131    1.7272 H   0  0  0  0  0  0  0  0  0  0  0  0
    2.1886    1.9124   -0.1744 H   0  0  0  0  0  0  0  0  0  0  0  0
    1.0397    2.8129    0.8545 H   0  0  0  0  0  0  0  0  0  0  0  0
    3.6460   -1.7737   -0.7731 H   0  0  0  0  0  0  0  0  0  0  0  0
    4.9980   -1.0039    0.1013 H   0  0  0  0  0  0  0  0  0  0  0  0
    4.5164   -2.4619    2.0818 H   0  0  0  0  0  0  0  0  0  0  0  0
    3.2162   -3.2508    1.1872 H   0  0  0  0  0  0  0  0  0  0  0  0
    4.8907   -3.4223    0.6411 H   0  0  0  0  0  0  0  0  0  0  0  0
   -0.3734   -2.1262   -0.3061 H   0  0  0  0  0  0  0  0  0  0  0  0
   -0.0548   -2.4947   -2.0375 H   0  0  0  0  0  0  0  0  0  0  0  0
   -1.7565    3.2482   -1.7076 H   0  0  0  0  0  0  0  0  0  0  0  0
    0.0300    3.3327   -1.6767 H   0  0  0  0  0  0  0  0  0  0  0  0
    0.0818    1.4683   -3.3893 H   0  0  0  0  0  0  0  0  0  0  0  0
   -1.6865    1.5347   -3.4712 H   0  0  0  0  0  0  0  0  0  0  0  0
   -0.7269    2.9280   -3.9885 H   0  0  0  0  0  0  0  0  0  0  0  0
   -1.6550   -0.3396    2.7735 H   0  0  0  0  0  0  0  0  0  0  0  0
   -3.0362    0.5228    2.0287 H   0  0  0  0  0  0  0  0  0  0  0  0
   -2.2163   -2.3730    1.4629 H   0  0  0  0  0  0  0  0  0  0  0  0
   -3.6254   -1.8509    2.3946 H   0  0  0  0  0  0  0  0  0  0  0  0
   -3.5441   -1.5037    0.6602 H   0  0  0  0  0  0  0  0  0  0  0  0
  1  2  1  0  0  0  0
  2  3  1  0  0  0  0
  3  4  2  0  0  0  0
  4  5  2  0  0  0  0
  4  6  2  0  0  0  0
  6  7  1  0  0  0  0
  7  8  1  0  0  0  0
  4  9  1  0  0  0  0
  9 10  1  0  0  0  0
 10 11  1  0  0  0  0
 11 12  1  0  0  0  0
 12 13  2  0  0  0  0
 12 14  2  0  0  0  0
 14 15  1  0  0  0  0
 15 16  1  0  0  0  0
 12 17  1  0  0  0  0
 17 18  1  0  0  0  0
 18 19  1  0  0  0  0
  1 20  1  0  0  0  0
  1 21  1  0  0  0  0
  1 22  1  0  0  0  0
  2 23  1  0  0  0  0
  2 24  1  0  0  0  0
  7 25  1  0  0  0  0
  7 26  1  0  0  0  0
  8 27  1  0  0  0  0
  8 28  1  0  0  0  0
  8 29  1  0  0  0  0
 10 30  1  0  0  0  0
 10 31  1  0  0  0  0
 15 32  1  0  0  0  0
 15 33  1  0  0  0  0
 16 34  1  0  0  0  0
 16 35  1  0  0  0  0
 16 36  1  0  0  0  0
 18 37  1  0  0  0  0
 18 38  1  0  0  0  0
 19 39  1  0  0  0  0
 19 40  1  0  0  0  0
 19 41  1  0  0  0  0
M  END
