 xtb: 6.7.1 (edcfbbe)
          04032520393D

 22 22  0     0  0            999 V2000
    2.3873   -0.0004    0.5017 C   0  0  0  0  0  0  0  0  0  0  0  0
    1.3681    0.0002   -0.5426 N   0  0  0  0  0  0  0  0  0  0  0  0
    0.5289    1.1900   -0.5613 C   0  0  0  0  0  0  0  0  0  0  0  0
   -0.5316    1.1910    0.5531 C   0  0  0  0  0  0  0  0  0  0  0  0
   -1.3704    0.0000    0.5473 N   0  0  0  0  0  0  0  0  0  0  0  0
   -0.5313   -1.1908    0.5532 C   0  0  0  0  0  0  0  0  0  0  0  0
    0.5290   -1.1898   -0.5613 C   0  0  0  0  0  0  0  0  0  0  0  0
   -2.3802   -0.0002   -0.4920 C   0  0  0  0  0  0  0  0  0  0  0  0
    2.3218    0.8859    1.1331 H   0  0  0  0  0  0  0  0  0  0  0  0
    3.3722   -0.0100    0.0275 H   0  0  0  0  0  0  0  0  0  0  0  0
    2.3103   -0.8774    1.1450 H   0  0  0  0  0  0  0  0  0  0  0  0
    1.1662    2.0714   -0.4779 H   0  0  0  0  0  0  0  0  0  0  0  0
    0.0351    1.2226   -1.5375 H   0  0  0  0  0  0  0  0  0  0  0  0
   -0.0343    1.2254    1.5284 H   0  0  0  0  0  0  0  0  0  0  0  0
   -1.1713    2.0706    0.4639 H   0  0  0  0  0  0  0  0  0  0  0  0
   -0.0341   -1.2248    1.5285 H   0  0  0  0  0  0  0  0  0  0  0  0
   -1.1708   -2.0706    0.4644 H   0  0  0  0  0  0  0  0  0  0  0  0
    1.1666   -2.0710   -0.4779 H   0  0  0  0  0  0  0  0  0  0  0  0
    0.0352   -1.2224   -1.5375 H   0  0  0  0  0  0  0  0  0  0  0  0
   -3.0029   -0.8848   -0.3656 H   0  0  0  0  0  0  0  0  0  0  0  0
   -1.9819    0.0004   -1.5156 H   0  0  0  0  0  0  0  0  0  0  0  0
   -3.0040    0.8836   -0.3649 H   0  0  0  0  0  0  0  0  0  0  0  0
  1  2  1  0  0  0  0
  2  3  1  0  0  0  0
  3  4  1  0  0  0  0
  4  5  1  0  0  0  0
  5  6  1  0  0  0  0
  2  7  1  0  0  0  0
  6  7  1  0  0  0  0
  5  8  1  0  0  0  0
  1  9  1  0  0  0  0
  1 10  1  0  0  0  0
  1 11  1  0  0  0  0
  3 12  1  0  0  0  0
  3 13  1  0  0  0  0
  4 14  1  0  0  0  0
  4 15  1  0  0  0  0
  6 16  1  0  0  0  0
  6 17  1  0  0  0  0
  7 18  1  0  0  0  0
  7 19  1  0  0  0  0
  8 20  1  0  0  0  0
  8 21  1  0  0  0  0
  8 22  1  0  0  0  0
M  END
