 xtb: 6.7.1 (edcfbbe)
          04092507313D

 38 37  0     0  0            999 V2000
    3.9973   -2.6061    0.6815 C   0  0  0  0  0  0  0  0  0  0  0  0
    2.4993   -2.6358    0.4267 C   0  0  0  0  0  0  0  0  0  0  0  0
    2.1618   -1.8692   -0.7451 O   0  0  0  0  0  0  0  0  0  0  0  0
    1.9913   -0.5721   -0.6271 C   0  0  0  0  0  0  0  0  0  0  0  0
    2.0671    0.0548    0.4098 O   0  0  0  0  0  0  0  0  0  0  0  0
    1.6732    0.0882   -1.9552 C   0  0  0  0  0  0  0  0  0  0  0  0
    0.3828    0.9031   -1.8339 C   0  0  0  0  0  0  0  0  0  0  0  0
    0.2846    1.5709   -2.6926 H   0  0  0  0  0  0  0  0  0  0  0  0
    0.3618    1.7262   -0.5607 C   0  0  0  0  0  0  0  0  0  0  0  0
   -0.4769    1.5402    0.3097 O   0  0  0  0  0  0  0  0  0  0  0  0
    1.2524    2.6645   -0.5606 O   0  0  0  0  0  0  0  0  0  0  0  0
    1.4089    3.5151    0.6002 C   0  0  0  0  0  0  0  0  0  0  0  0
    2.7205    3.1894    1.2923 C   0  0  0  0  0  0  0  0  0  0  0  0
   -1.1076   -0.1566   -1.8642 S   0  0  0  0  0  0  0  0  0  0  0  0
   -1.7094   -0.4530    0.1437 P   0  0  0  0  0  0  0  0  0  0  0  0
   -0.6548   -1.0802    1.6857 S   0  0  0  0  0  0  0  0  0  0  0  0
   -2.9245    0.5244    0.5204 O   0  0  0  0  0  0  0  0  0  0  0  0
   -2.9178    1.5038    1.5565 C   0  0  0  0  0  0  0  0  0  0  0  0
   -2.5939   -1.6789   -0.4324 O   0  0  0  0  0  0  0  0  0  0  0  0
   -3.4100   -2.4860    0.4146 C   0  0  0  0  0  0  0  0  0  0  0  0
    4.2264   -3.2483    1.5252 H   0  0  0  0  0  0  0  0  0  0  0  0
    4.5321   -2.9586   -0.1962 H   0  0  0  0  0  0  0  0  0  0  0  0
    4.3171   -1.5929    0.9133 H   0  0  0  0  0  0  0  0  0  0  0  0
    1.9442   -2.2335    1.2801 H   0  0  0  0  0  0  0  0  0  0  0  0
    2.1509   -3.6432    0.1988 H   0  0  0  0  0  0  0  0  0  0  0  0
    1.5682   -0.6675   -2.7310 H   0  0  0  0  0  0  0  0  0  0  0  0
    2.4955    0.7650   -2.1959 H   0  0  0  0  0  0  0  0  0  0  0  0
    1.4052    4.5331    0.2071 H   0  0  0  0  0  0  0  0  0  0  0  0
    0.5598    3.3593    1.2694 H   0  0  0  0  0  0  0  0  0  0  0  0
    2.7269    2.1435    1.5910 H   0  0  0  0  0  0  0  0  0  0  0  0
    3.5546    3.3684    0.6208 H   0  0  0  0  0  0  0  0  0  0  0  0
    2.8255    3.8134    2.1734 H   0  0  0  0  0  0  0  0  0  0  0  0
   -3.9133    1.4853    1.9954 H   0  0  0  0  0  0  0  0  0  0  0  0
   -2.7023    2.4815    1.1295 H   0  0  0  0  0  0  0  0  0  0  0  0
   -2.1656    1.2532    2.3066 H   0  0  0  0  0  0  0  0  0  0  0  0
   -3.6343   -3.3831   -0.1572 H   0  0  0  0  0  0  0  0  0  0  0  0
   -4.3260   -1.9530    0.6684 H   0  0  0  0  0  0  0  0  0  0  0  0
   -2.8652   -2.7415    1.3268 H   0  0  0  0  0  0  0  0  0  0  0  0
  1  2  1  0  0  0  0
  2  3  1  0  0  0  0
  3  4  4  0  0  0  0
  4  5  2  0  0  0  0
  4  6  1  0  0  0  0
  6  7  1  0  0  0  0
  7  8  1  0  0  0  0
  7  9  1  0  0  0  0
  9 10  2  0  0  0  0
  9 11  4  0  0  0  0
 11 12  1  0  0  0  0
 12 13  1  0  0  0  0
  7 14  1  0  0  0  0
 14 15  1  0  0  0  0
 15 16  2  0  0  0  0
 15 17  1  0  0  0  0
 17 18  1  0  0  0  0
 15 19  1  0  0  0  0
 19 20  1  0  0  0  0
  1 21  1  0  0  0  0
  1 22  1  0  0  0  0
  1 23  1  0  0  0  0
  2 24  1  0  0  0  0
  2 25  1  0  0  0  0
  6 26  1  0  0  0  0
  6 27  1  0  0  0  0
 12 28  1  0  0  0  0
 12 29  1  0  0  0  0
 13 30  1  0  0  0  0
 13 31  1  0  0  0  0
 13 32  1  0  0  0  0
 18 33  1  0  0  0  0
 18 34  1  0  0  0  0
 18 35  1  0  0  0  0
 20 36  1  0  0  0  0
 20 37  1  0  0  0  0
 20 38  1  0  0  0  0
M  END
