 xtb: 6.7.1 (edcfbbe)
          04092507313D

 38 37  0     0  0            999 V2000
    2.3913   -4.5028   -1.0871 C   0  0  0  0  0  0  0  0  0  0  0  0
    3.5666   -3.5432   -1.1863 C   0  0  0  0  0  0  0  0  0  0  0  0
    3.3187   -2.3578   -0.4060 O   0  0  0  0  0  0  0  0  0  0  0  0
    2.6386   -1.3746   -0.9570 C   0  0  0  0  0  0  0  0  0  0  0  0
    2.2394   -1.3630   -2.1003 O   0  0  0  0  0  0  0  0  0  0  0  0
    2.4178   -0.2379    0.0258 C   0  0  0  0  0  0  0  0  0  0  0  0
    0.9844    0.2587   -0.1034 C   0  0  0  0  0  0  0  0  0  0  0  0
    0.7610    0.4554   -1.1601 H   0  0  0  0  0  0  0  0  0  0  0  0
    0.6946    1.5264    0.6738 C   0  0  0  0  0  0  0  0  0  0  0  0
   -0.3226    1.6587    1.3249 O   0  0  0  0  0  0  0  0  0  0  0  0
    1.6300    2.4230    0.5405 O   0  0  0  0  0  0  0  0  0  0  0  0
    1.4099    3.7308    1.1166 C   0  0  0  0  0  0  0  0  0  0  0  0
    0.6525    4.6151    0.1402 C   0  0  0  0  0  0  0  0  0  0  0  0
   -0.1852   -1.0171    0.4769 S   0  0  0  0  0  0  0  0  0  0  0  0
   -1.9972    0.0398    0.0747 P   0  0  0  0  0  0  0  0  0  0  0  0
   -1.9987    1.5559   -1.1632 S   0  0  0  0  0  0  0  0  0  0  0  0
   -2.8567   -1.1185   -0.6014 O   0  0  0  0  0  0  0  0  0  0  0  0
   -3.1181   -2.3765    0.0431 C   0  0  0  0  0  0  0  0  0  0  0  0
   -2.8070    0.1792    1.4431 O   0  0  0  0  0  0  0  0  0  0  0  0
   -2.8788    1.3082    2.3139 C   0  0  0  0  0  0  0  0  0  0  0  0
    2.6223   -5.4135   -1.6295 H   0  0  0  0  0  0  0  0  0  0  0  0
    2.1915   -4.7425   -0.0465 H   0  0  0  0  0  0  0  0  0  0  0  0
    1.5025   -4.0483   -1.5195 H   0  0  0  0  0  0  0  0  0  0  0  0
    3.7407   -3.2489   -2.2251 H   0  0  0  0  0  0  0  0  0  0  0  0
    4.4704   -3.9717   -0.7535 H   0  0  0  0  0  0  0  0  0  0  0  0
    3.0946    0.5810   -0.2264 H   0  0  0  0  0  0  0  0  0  0  0  0
    2.6262   -0.5933    1.0340 H   0  0  0  0  0  0  0  0  0  0  0  0
    0.8539    3.6122    2.0498 H   0  0  0  0  0  0  0  0  0  0  0  0
    2.4119    4.1128    1.3101 H   0  0  0  0  0  0  0  0  0  0  0  0
    0.4968    5.5923    0.5845 H   0  0  0  0  0  0  0  0  0  0  0  0
    1.2145    4.7248   -0.7830 H   0  0  0  0  0  0  0  0  0  0  0  0
   -0.3150    4.1745   -0.0961 H   0  0  0  0  0  0  0  0  0  0  0  0
   -3.5870   -2.9949   -0.7180 H   0  0  0  0  0  0  0  0  0  0  0  0
   -3.7870   -2.2263    0.8884 H   0  0  0  0  0  0  0  0  0  0  0  0
   -2.1824   -2.8244    0.3806 H   0  0  0  0  0  0  0  0  0  0  0  0
   -2.8148    2.2329    1.7410 H   0  0  0  0  0  0  0  0  0  0  0  0
   -2.0656    1.2674    3.0354 H   0  0  0  0  0  0  0  0  0  0  0  0
   -3.8446    1.2302    2.8086 H   0  0  0  0  0  0  0  0  0  0  0  0
  1  2  1  0  0  0  0
  2  3  1  0  0  0  0
  3  4  1  0  0  0  0
  4  5  2  0  0  0  0
  4  6  1  0  0  0  0
  6  7  1  0  0  0  0
  7  8  1  0  0  0  0
  7  9  1  0  0  0  0
  9 10  2  0  0  0  0
  9 11  4  0  0  0  0
 11 12  1  0  0  0  0
 12 13  1  0  0  0  0
  7 14  1  0  0  0  0
 14 15  1  0  0  0  0
 15 16  2  0  0  0  0
 15 17  1  0  0  0  0
 17 18  1  0  0  0  0
 15 19  2  0  0  0  0
 19 20  1  0  0  0  0
  1 21  1  0  0  0  0
  1 22  1  0  0  0  0
  1 23  1  0  0  0  0
  2 24  1  0  0  0  0
  2 25  1  0  0  0  0
  6 26  1  0  0  0  0
  6 27  1  0  0  0  0
 12 28  1  0  0  0  0
 12 29  1  0  0  0  0
 13 30  1  0  0  0  0
 13 31  1  0  0  0  0
 13 32  1  0  0  0  0
 18 33  1  0  0  0  0
 18 34  1  0  0  0  0
 18 35  1  0  0  0  0
 20 36  1  0  0  0  0
 20 37  1  0  0  0  0
 20 38  1  0  0  0  0
M  END
