 xtb: 6.7.1 (edcfbbe)
          04092507313D

 38 37  0     0  0            999 V2000
    5.2155   -1.7211   -1.6492 C   0  0  0  0  0  0  0  0  0  0  0  0
    4.4569   -0.4747   -1.2216 C   0  0  0  0  0  0  0  0  0  0  0  0
    3.0341   -0.6952   -1.2594 O   0  0  0  0  0  0  0  0  0  0  0  0
    2.4601   -1.2370   -0.1989 C   0  0  0  0  0  0  0  0  0  0  0  0
    3.0482   -1.5662    0.8043 O   0  0  0  0  0  0  0  0  0  0  0  0
    0.9680   -1.4311   -0.4025 C   0  0  0  0  0  0  0  0  0  0  0  0
    0.3294   -0.2162   -1.0656 C   0  0  0  0  0  0  0  0  0  0  0  0
    0.8185   -0.0188   -2.0252 H   0  0  0  0  0  0  0  0  0  0  0  0
    0.4219    1.0463   -0.2301 C   0  0  0  0  0  0  0  0  0  0  0  0
   -0.4563    1.8870   -0.2107 O   0  0  0  0  0  0  0  0  0  0  0  0
    1.5561    1.1340    0.4102 O   0  0  0  0  0  0  0  0  0  0  0  0
    1.7595    2.2677    1.2799 C   0  0  0  0  0  0  0  0  0  0  0  0
    3.2114    2.2673    1.7125 C   0  0  0  0  0  0  0  0  0  0  0  0
   -1.4225   -0.4898   -1.4838 S   0  0  0  0  0  0  0  0  0  0  0  0
   -2.3708    0.0367    0.3430 P   0  0  0  0  0  0  0  0  0  0  0  0
   -1.3566   -0.1484    2.0099 S   0  0  0  0  0  0  0  0  0  0  0  0
   -3.1026    1.4276    0.2122 O   0  0  0  0  0  0  0  0  0  0  0  0
   -3.8778    1.7954   -0.9458 C   0  0  0  0  0  0  0  0  0  0  0  0
   -3.6485   -0.9327    0.2801 O   0  0  0  0  0  0  0  0  0  0  0  0
   -3.5211   -2.3499    0.4334 C   0  0  0  0  0  0  0  0  0  0  0  0
    4.8898   -2.0388   -2.6358 H   0  0  0  0  0  0  0  0  0  0  0  0
    6.2779   -1.5025   -1.6760 H   0  0  0  0  0  0  0  0  0  0  0  0
    5.0390   -2.5262   -0.9399 H   0  0  0  0  0  0  0  0  0  0  0  0
    4.6234    0.3494   -1.9156 H   0  0  0  0  0  0  0  0  0  0  0  0
    4.7356   -0.1818   -0.2057 H   0  0  0  0  0  0  0  0  0  0  0  0
    0.5187   -1.6299    0.5727 H   0  0  0  0  0  0  0  0  0  0  0  0
    0.8234   -2.3015   -1.0457 H   0  0  0  0  0  0  0  0  0  0  0  0
    1.4867    3.1757    0.7339 H   0  0  0  0  0  0  0  0  0  0  0  0
    1.0808    2.1536    2.1314 H   0  0  0  0  0  0  0  0  0  0  0  0
    3.8603    2.4228    0.8555 H   0  0  0  0  0  0  0  0  0  0  0  0
    3.3698    3.0632    2.4321 H   0  0  0  0  0  0  0  0  0  0  0  0
    3.4544    1.3134    2.1731 H   0  0  0  0  0  0  0  0  0  0  0  0
   -4.3030    2.7653   -0.7017 H   0  0  0  0  0  0  0  0  0  0  0  0
   -4.6597    1.0588   -1.1213 H   0  0  0  0  0  0  0  0  0  0  0  0
   -3.2242    1.8715   -1.8145 H   0  0  0  0  0  0  0  0  0  0  0  0
   -3.0785   -2.7808   -0.4643 H   0  0  0  0  0  0  0  0  0  0  0  0
   -4.5325   -2.7203    0.5792 H   0  0  0  0  0  0  0  0  0  0  0  0
   -2.9037   -2.5786    1.3036 H   0  0  0  0  0  0  0  0  0  0  0  0
  1  2  1  0  0  0  0
  2  3  1  0  0  0  0
  3  4  1  0  0  0  0
  4  5  2  0  0  0  0
  4  6  1  0  0  0  0
  6  7  1  0  0  0  0
  7  8  1  0  0  0  0
  7  9  1  0  0  0  0
  9 10  2  0  0  0  0
  9 11  4  0  0  0  0
 11 12  1  0  0  0  0
 12 13  1  0  0  0  0
  7 14  1  0  0  0  0
 14 15  1  0  0  0  0
 15 16  2  0  0  0  0
 15 17  2  0  0  0  0
 17 18  1  0  0  0  0
 15 19  1  0  0  0  0
 19 20  1  0  0  0  0
  1 21  1  0  0  0  0
  1 22  1  0  0  0  0
  1 23  1  0  0  0  0
  2 24  1  0  0  0  0
  2 25  1  0  0  0  0
  6 26  1  0  0  0  0
  6 27  1  0  0  0  0
 12 28  1  0  0  0  0
 12 29  1  0  0  0  0
 13 30  1  0  0  0  0
 13 31  1  0  0  0  0
 13 32  1  0  0  0  0
 18 33  1  0  0  0  0
 18 34  1  0  0  0  0
 18 35  1  0  0  0  0
 20 36  1  0  0  0  0
 20 37  1  0  0  0  0
 20 38  1  0  0  0  0
M  END
