 xtb: 6.7.1 (edcfbbe)
          04032519393D

  8  7  0     0  0            999 V2000
   -0.8415   -0.6151   -0.9565 C   0  0  0  0  0  0  0  0  0  0  0  0
    0.5189    0.0247   -0.7969 C   0  0  0  0  0  0  0  0  0  0  0  0
    1.5095   -0.8644    0.3956 Cl  0  0  0  0  0  0  0  0  0  0  0  0
    0.3713    1.7248   -0.2655 Cl  0  0  0  0  0  0  0  0  0  0  0  0
   -1.7402   -0.6125    0.5968 Cl  0  0  0  0  0  0  0  0  0  0  0  0
   -1.4384   -0.0530   -1.6733 H   0  0  0  0  0  0  0  0  0  0  0  0
   -0.7346   -1.6545   -1.2636 H   0  0  0  0  0  0  0  0  0  0  0  0
    1.0683    0.0251   -1.7401 H   0  0  0  0  0  0  0  0  0  0  0  0
  1  2  1  0  0  0  0
  2  3  1  0  0  0  0
  2  4  1  0  0  0  0
  1  5  1  0  0  0  0
  1  6  1  0  0  0  0
  1  7  1  0  0  0  0
  2  8  1  0  0  0  0
M  END
