 xtb: 6.7.1 (edcfbbe)
          04092505203D

 41 40  0     0  0            999 V2000
    4.0345    0.4685   -2.6329 C   0  0  0  0  0  0  0  0  0  0  0  0
    2.6344    0.0228   -2.2680 C   0  0  0  0  0  0  0  0  0  0  0  0
    2.1427    0.7813   -1.1363 O   0  0  0  0  0  0  0  0  0  0  0  0
    2.0788    0.2091    0.3254 P   0  0  0  0  0  0  0  0  0  0  0  0
    1.3395    1.5498    1.5405 S   0  0  0  0  0  0  0  0  0  0  0  0
    3.5984   -0.2176    0.5479 O   0  0  0  0  0  0  0  0  0  0  0  0
    4.0776   -1.1021    1.5771 C   0  0  0  0  0  0  0  0  0  0  0  0
    3.7439   -0.6167    2.9723 C   0  0  0  0  0  0  0  0  0  0  0  0
    1.0787   -1.6773    0.2724 S   0  0  0  0  0  0  0  0  0  0  0  0
   -0.2644   -1.3563    1.4551 C   0  0  0  0  0  0  0  0  0  0  0  0
   -1.9280   -1.5028    0.7542 S   0  0  0  0  0  0  0  0  0  0  0  0
   -1.9818    0.2026   -0.5195 P   0  0  0  0  0  0  0  0  0  0  0  0
   -0.8448    0.2293   -2.1089 S   0  0  0  0  0  0  0  0  0  0  0  0
   -1.6879    1.4302    0.4214 O   0  0  0  0  0  0  0  0  0  0  0  0
   -2.4027    1.7284    1.6467 C   0  0  0  0  0  0  0  0  0  0  0  0
   -3.5196    2.7180    1.3904 C   0  0  0  0  0  0  0  0  0  0  0  0
   -3.5368    0.3328   -0.8278 O   0  0  0  0  0  0  0  0  0  0  0  0
   -4.1621   -0.3430   -1.9333 C   0  0  0  0  0  0  0  0  0  0  0  0
   -4.1402   -1.8485   -1.7698 C   0  0  0  0  0  0  0  0  0  0  0  0
    4.0395    1.5335   -2.8480 H   0  0  0  0  0  0  0  0  0  0  0  0
    4.7175    0.2732   -1.8102 H   0  0  0  0  0  0  0  0  0  0  0  0
    4.3608   -0.0778   -3.5121 H   0  0  0  0  0  0  0  0  0  0  0  0
    2.6036   -1.0429   -2.0238 H   0  0  0  0  0  0  0  0  0  0  0  0
    1.9187    0.2266   -3.0678 H   0  0  0  0  0  0  0  0  0  0  0  0
    3.6549   -2.0951    1.3994 H   0  0  0  0  0  0  0  0  0  0  0  0
    5.1562   -1.1244    1.4119 H   0  0  0  0  0  0  0  0  0  0  0  0
    2.6661   -0.6177    3.1261 H   0  0  0  0  0  0  0  0  0  0  0  0
    4.2080   -1.2732    3.7012 H   0  0  0  0  0  0  0  0  0  0  0  0
    4.1072    0.3978    3.1173 H   0  0  0  0  0  0  0  0  0  0  0  0
   -0.1167   -0.3548    1.8724 H   0  0  0  0  0  0  0  0  0  0  0  0
   -0.2147   -2.1210    2.2262 H   0  0  0  0  0  0  0  0  0  0  0  0
   -2.7917    0.7969    2.0676 H   0  0  0  0  0  0  0  0  0  0  0  0
   -1.6364    2.1461    2.3044 H   0  0  0  0  0  0  0  0  0  0  0  0
   -4.2656    2.2820    0.7311 H   0  0  0  0  0  0  0  0  0  0  0  0
   -3.9829    2.9787    2.3368 H   0  0  0  0  0  0  0  0  0  0  0  0
   -3.1211    3.6163    0.9264 H   0  0  0  0  0  0  0  0  0  0  0  0
   -5.1800    0.0491   -1.9355 H   0  0  0  0  0  0  0  0  0  0  0  0
   -3.6466   -0.0479   -2.8526 H   0  0  0  0  0  0  0  0  0  0  0  0
   -4.7255   -2.3038   -2.5622 H   0  0  0  0  0  0  0  0  0  0  0  0
   -3.1159   -2.2137   -1.8349 H   0  0  0  0  0  0  0  0  0  0  0  0
   -4.5534   -2.1319   -0.8049 H   0  0  0  0  0  0  0  0  0  0  0  0
  1  2  1  0  0  0  0
  2  3  1  0  0  0  0
  3  4  2  0  0  0  0
  4  5  2  0  0  0  0
  4  6  2  0  0  0  0
  6  7  1  0  0  0  0
  7  8  1  0  0  0  0
  4  9  1  0  0  0  0
  9 10  1  0  0  0  0
 10 11  1  0  0  0  0
 11 12  1  0  0  0  0
 12 13  2  0  0  0  0
 12 14  2  0  0  0  0
 14 15  1  0  0  0  0
 15 16  1  0  0  0  0
 12 17  2  0  0  0  0
 17 18  1  0  0  0  0
 18 19  1  0  0  0  0
  1 20  1  0  0  0  0
  1 21  1  0  0  0  0
  1 22  1  0  0  0  0
  2 23  1  0  0  0  0
  2 24  1  0  0  0  0
  7 25  1  0  0  0  0
  7 26  1  0  0  0  0
  8 27  1  0  0  0  0
  8 28  1  0  0  0  0
  8 29  1  0  0  0  0
 10 30  1  0  0  0  0
 10 31  1  0  0  0  0
 15 32  1  0  0  0  0
 15 33  1  0  0  0  0
 16 34  1  0  0  0  0
 16 35  1  0  0  0  0
 16 36  1  0  0  0  0
 18 37  1  0  0  0  0
 18 38  1  0  0  0  0
 19 39  1  0  0  0  0
 19 40  1  0  0  0  0
 19 41  1  0  0  0  0
M  END
