 xtb: 6.7.1 (edcfbbe)
          04092505213D

 41 40  0     0  0            999 V2000
    2.1834    2.3386    2.4541 C   0  0  0  0  0  0  0  0  0  0  0  0
    2.6192    2.2119    1.0092 C   0  0  0  0  0  0  0  0  0  0  0  0
    1.7762    1.2988    0.2705 O   0  0  0  0  0  0  0  0  0  0  0  0
    1.7094   -0.2538    0.5573 P   0  0  0  0  0  0  0  0  0  0  0  0
    0.5119   -0.9321    1.9617 S   0  0  0  0  0  0  0  0  0  0  0  0
    3.2459   -0.5616    0.8547 O   0  0  0  0  0  0  0  0  0  0  0  0
    3.6865   -1.8662    1.2710 C   0  0  0  0  0  0  0  0  0  0  0  0
    5.0584   -1.7192    1.8982 C   0  0  0  0  0  0  0  0  0  0  0  0
    1.4153   -1.0627   -1.3800 S   0  0  0  0  0  0  0  0  0  0  0  0
   -0.1067   -2.0191   -1.1383 C   0  0  0  0  0  0  0  0  0  0  0  0
   -1.5348   -1.3979   -2.0838 S   0  0  0  0  0  0  0  0  0  0  0  0
   -2.2071    0.1326   -0.8081 P   0  0  0  0  0  0  0  0  0  0  0  0
   -3.7955    1.1223   -1.3774 S   0  0  0  0  0  0  0  0  0  0  0  0
   -0.9186    1.0471   -0.5196 O   0  0  0  0  0  0  0  0  0  0  0  0
   -0.7307    2.2695   -1.2547 C   0  0  0  0  0  0  0  0  0  0  0  0
   -0.2829    2.0105   -2.6788 C   0  0  0  0  0  0  0  0  0  0  0  0
   -2.3537   -0.7026    0.5302 O   0  0  0  0  0  0  0  0  0  0  0  0
   -3.1934   -0.2647    1.6184 C   0  0  0  0  0  0  0  0  0  0  0  0
   -2.6843    1.0109    2.2541 C   0  0  0  0  0  0  0  0  0  0  0  0
    1.1432    2.6516    2.5108 H   0  0  0  0  0  0  0  0  0  0  0  0
    2.2819    1.3784    2.9594 H   0  0  0  0  0  0  0  0  0  0  0  0
    2.8060    3.0708    2.9585 H   0  0  0  0  0  0  0  0  0  0  0  0
    3.6518    1.8659    0.9394 H   0  0  0  0  0  0  0  0  0  0  0  0
    2.5081    3.1556    0.4722 H   0  0  0  0  0  0  0  0  0  0  0  0
    2.9604   -2.2692    1.9856 H   0  0  0  0  0  0  0  0  0  0  0  0
    3.7190   -2.5122    0.3895 H   0  0  0  0  0  0  0  0  0  0  0  0
    5.0056   -1.0758    2.7720 H   0  0  0  0  0  0  0  0  0  0  0  0
    5.4187   -2.6979    2.1975 H   0  0  0  0  0  0  0  0  0  0  0  0
    5.7496   -1.2858    1.1813 H   0  0  0  0  0  0  0  0  0  0  0  0
   -0.3518   -2.0350   -0.0734 H   0  0  0  0  0  0  0  0  0  0  0  0
    0.0700   -3.0198   -1.5224 H   0  0  0  0  0  0  0  0  0  0  0  0
   -1.6760    2.8223   -1.2458 H   0  0  0  0  0  0  0  0  0  0  0  0
    0.0246    2.8110   -0.6857 H   0  0  0  0  0  0  0  0  0  0  0  0
    0.6359    1.4287   -2.6910 H   0  0  0  0  0  0  0  0  0  0  0  0
   -1.0564    1.4605   -3.2154 H   0  0  0  0  0  0  0  0  0  0  0  0
   -0.1146    2.9590   -3.1787 H   0  0  0  0  0  0  0  0  0  0  0  0
   -4.2082   -0.1276    1.2321 H   0  0  0  0  0  0  0  0  0  0  0  0
   -3.1644   -1.1018    2.3170 H   0  0  0  0  0  0  0  0  0  0  0  0
   -3.2953    1.2510    3.1182 H   0  0  0  0  0  0  0  0  0  0  0  0
   -1.6508    0.8815    2.5669 H   0  0  0  0  0  0  0  0  0  0  0  0
   -2.7412    1.8302    1.5379 H   0  0  0  0  0  0  0  0  0  0  0  0
  1  2  1  0  0  0  0
  2  3  1  0  0  0  0
  3  4  2  0  0  0  0
  4  5  2  0  0  0  0
  4  6  2  0  0  0  0
  6  7  1  0  0  0  0
  7  8  1  0  0  0  0
  4  9  1  0  0  0  0
  9 10  1  0  0  0  0
 10 11  1  0  0  0  0
 11 12  1  0  0  0  0
 12 13  2  0  0  0  0
 12 14  1  0  0  0  0
 14 15  1  0  0  0  0
 15 16  1  0  0  0  0
 12 17  2  0  0  0  0
 17 18  1  0  0  0  0
 18 19  1  0  0  0  0
  1 20  1  0  0  0  0
  1 21  1  0  0  0  0
  1 22  1  0  0  0  0
  2 23  1  0  0  0  0
  2 24  1  0  0  0  0
  7 25  1  0  0  0  0
  7 26  1  0  0  0  0
  8 27  1  0  0  0  0
  8 28  1  0  0  0  0
  8 29  1  0  0  0  0
 10 30  1  0  0  0  0
 10 31  1  0  0  0  0
 15 32  1  0  0  0  0
 15 33  1  0  0  0  0
 16 34  1  0  0  0  0
 16 35  1  0  0  0  0
 16 36  1  0  0  0  0
 18 37  1  0  0  0  0
 18 38  1  0  0  0  0
 19 39  1  0  0  0  0
 19 40  1  0  0  0  0
 19 41  1  0  0  0  0
M  END
