 xtb: 6.7.1 (edcfbbe)
          04092505213D

 41 40  0     0  0            999 V2000
    2.6077   -2.8150   -1.6556 C   0  0  0  0  0  0  0  0  0  0  0  0
    3.7549   -2.2056   -0.8793 C   0  0  0  0  0  0  0  0  0  0  0  0
    3.6559   -0.7647   -0.7676 O   0  0  0  0  0  0  0  0  0  0  0  0
    2.4613    0.0404   -0.1146 P   0  0  0  0  0  0  0  0  0  0  0  0
    3.0309    1.8174    0.4699 S   0  0  0  0  0  0  0  0  0  0  0  0
    1.8553   -0.9108    1.0225 O   0  0  0  0  0  0  0  0  0  0  0  0
    1.9266   -0.5924    2.4237 C   0  0  0  0  0  0  0  0  0  0  0  0
    3.2759   -0.9780    2.9953 C   0  0  0  0  0  0  0  0  0  0  0  0
    0.9310    0.0181   -1.5821 S   0  0  0  0  0  0  0  0  0  0  0  0
    0.0001    1.4261   -0.9257 C   0  0  0  0  0  0  0  0  0  0  0  0
   -0.7362    1.0973    0.6962 S   0  0  0  0  0  0  0  0  0  0  0  0
   -2.5530    0.1678    0.0538 P   0  0  0  0  0  0  0  0  0  0  0  0
   -3.0722    0.5276   -1.8079 S   0  0  0  0  0  0  0  0  0  0  0  0
   -3.6275    0.5850    1.1345 O   0  0  0  0  0  0  0  0  0  0  0  0
   -4.4691    1.7377    0.9624 C   0  0  0  0  0  0  0  0  0  0  0  0
   -3.6976    3.0332    1.1206 C   0  0  0  0  0  0  0  0  0  0  0  0
   -2.4502   -1.3363    0.5361 O   0  0  0  0  0  0  0  0  0  0  0  0
   -1.4188   -2.2670    0.1675 C   0  0  0  0  0  0  0  0  0  0  0  0
   -1.5365   -2.7155   -1.2765 C   0  0  0  0  0  0  0  0  0  0  0  0
    2.8039   -3.8719   -1.8071 H   0  0  0  0  0  0  0  0  0  0  0  0
    1.6775   -2.7013   -1.1031 H   0  0  0  0  0  0  0  0  0  0  0  0
    2.5012   -2.3282   -2.6221 H   0  0  0  0  0  0  0  0  0  0  0  0
    4.7088   -2.3472   -1.3896 H   0  0  0  0  0  0  0  0  0  0  0  0
    3.8075   -2.6235    0.1284 H   0  0  0  0  0  0  0  0  0  0  0  0
    1.7419    0.4785    2.5536 H   0  0  0  0  0  0  0  0  0  0  0  0
    1.1137   -1.1618    2.8765 H   0  0  0  0  0  0  0  0  0  0  0  0
    3.2994   -0.7403    4.0539 H   0  0  0  0  0  0  0  0  0  0  0  0
    3.4569   -2.0413    2.8624 H   0  0  0  0  0  0  0  0  0  0  0  0
    4.0611   -0.4161    2.4902 H   0  0  0  0  0  0  0  0  0  0  0  0
   -0.7911    1.6392   -1.6467 H   0  0  0  0  0  0  0  0  0  0  0  0
    0.6727    2.2738   -0.8003 H   0  0  0  0  0  0  0  0  0  0  0  0
   -4.9372    1.6863   -0.0262 H   0  0  0  0  0  0  0  0  0  0  0  0
   -5.2288    1.6257    1.7372 H   0  0  0  0  0  0  0  0  0  0  0  0
   -2.9950    3.1529    0.2969 H   0  0  0  0  0  0  0  0  0  0  0  0
   -4.3911    3.8680    1.1137 H   0  0  0  0  0  0  0  0  0  0  0  0
   -3.1443    3.0309    2.0563 H   0  0  0  0  0  0  0  0  0  0  0  0
   -0.4412   -1.8131    0.3602 H   0  0  0  0  0  0  0  0  0  0  0  0
   -1.5728   -3.1019    0.8541 H   0  0  0  0  0  0  0  0  0  0  0  0
   -0.8404   -3.5276   -1.4607 H   0  0  0  0  0  0  0  0  0  0  0  0
   -2.5481   -3.0593   -1.4764 H   0  0  0  0  0  0  0  0  0  0  0  0
   -1.3069   -1.8950   -1.9541 H   0  0  0  0  0  0  0  0  0  0  0  0
  1  2  1  0  0  0  0
  2  3  1  0  0  0  0
  3  4  2  0  0  0  0
  4  5  2  0  0  0  0
  4  6  1  0  0  0  0
  6  7  1  0  0  0  0
  7  8  1  0  0  0  0
  4  9  1  0  0  0  0
  9 10  1  0  0  0  0
 10 11  1  0  0  0  0
 11 12  1  0  0  0  0
 12 13  2  0  0  0  0
 12 14  2  0  0  0  0
 14 15  1  0  0  0  0
 15 16  1  0  0  0  0
 12 17  2  0  0  0  0
 17 18  1  0  0  0  0
 18 19  1  0  0  0  0
  1 20  1  0  0  0  0
  1 21  1  0  0  0  0
  1 22  1  0  0  0  0
  2 23  1  0  0  0  0
  2 24  1  0  0  0  0
  7 25  1  0  0  0  0
  7 26  1  0  0  0  0
  8 27  1  0  0  0  0
  8 28  1  0  0  0  0
  8 29  1  0  0  0  0
 10 30  1  0  0  0  0
 10 31  1  0  0  0  0
 15 32  1  0  0  0  0
 15 33  1  0  0  0  0
 16 34  1  0  0  0  0
 16 35  1  0  0  0  0
 16 36  1  0  0  0  0
 18 37  1  0  0  0  0
 18 38  1  0  0  0  0
 19 39  1  0  0  0  0
 19 40  1  0  0  0  0
 19 41  1  0  0  0  0
M  END
