 xtb: 6.7.1 (edcfbbe)
          04092505213D

 41 40  0     0  0            999 V2000
    1.3858    0.5298   -2.7620 C   0  0  0  0  0  0  0  0  0  0  0  0
    2.4326    0.8736   -1.7209 C   0  0  0  0  0  0  0  0  0  0  0  0
    2.7993   -0.2909   -0.9599 O   0  0  0  0  0  0  0  0  0  0  0  0
    2.2232   -0.6412    0.4778 P   0  0  0  0  0  0  0  0  0  0  0  0
    2.3235    0.7937    1.8191 S   0  0  0  0  0  0  0  0  0  0  0  0
    3.0536   -1.9393    0.8389 O   0  0  0  0  0  0  0  0  0  0  0  0
    4.3152   -1.8827    1.5347 C   0  0  0  0  0  0  0  0  0  0  0  0
    5.4082   -1.2855    0.6739 C   0  0  0  0  0  0  0  0  0  0  0  0
    0.3566   -1.5526    0.1263 S   0  0  0  0  0  0  0  0  0  0  0  0
   -0.4967   -1.0611    1.6673 C   0  0  0  0  0  0  0  0  0  0  0  0
   -2.2555   -0.7411    1.3979 S   0  0  0  0  0  0  0  0  0  0  0  0
   -2.0635    0.7577   -0.0849 P   0  0  0  0  0  0  0  0  0  0  0  0
   -0.5971    2.0431    0.0293 S   0  0  0  0  0  0  0  0  0  0  0  0
   -3.5322    1.3521    0.1110 O   0  0  0  0  0  0  0  0  0  0  0  0
   -3.8689    2.6923   -0.2957 C   0  0  0  0  0  0  0  0  0  0  0  0
   -3.9442    2.8167   -1.8045 C   0  0  0  0  0  0  0  0  0  0  0  0
   -2.0452    0.0209   -1.4937 O   0  0  0  0  0  0  0  0  0  0  0  0
   -3.0624   -0.9381   -1.8733 C   0  0  0  0  0  0  0  0  0  0  0  0
   -2.4836   -2.3381   -1.9039 C   0  0  0  0  0  0  0  0  0  0  0  0
    0.4428    0.2687   -2.2858 H   0  0  0  0  0  0  0  0  0  0  0  0
    1.2257    1.3937   -3.3991 H   0  0  0  0  0  0  0  0  0  0  0  0
    1.7232   -0.3095   -3.3633 H   0  0  0  0  0  0  0  0  0  0  0  0
    2.0737    1.6545   -1.0421 H   0  0  0  0  0  0  0  0  0  0  0  0
    3.3619    1.2015   -2.1910 H   0  0  0  0  0  0  0  0  0  0  0  0
    4.1791   -1.2952    2.4484 H   0  0  0  0  0  0  0  0  0  0  0  0
    4.5195   -2.9240    1.7868 H   0  0  0  0  0  0  0  0  0  0  0  0
    5.1930   -0.2354    0.4803 H   0  0  0  0  0  0  0  0  0  0  0  0
    6.3585   -1.3613    1.1931 H   0  0  0  0  0  0  0  0  0  0  0  0
    5.4684   -1.8122   -0.2747 H   0  0  0  0  0  0  0  0  0  0  0  0
   -0.0103   -0.1604    2.0531 H   0  0  0  0  0  0  0  0  0  0  0  0
   -0.4442   -1.8747    2.3865 H   0  0  0  0  0  0  0  0  0  0  0  0
   -4.8345    2.8772    0.1771 H   0  0  0  0  0  0  0  0  0  0  0  0
   -3.1195    3.3789    0.1107 H   0  0  0  0  0  0  0  0  0  0  0  0
   -4.6655    2.1104   -2.2070 H   0  0  0  0  0  0  0  0  0  0  0  0
   -4.2447    3.8263   -2.0669 H   0  0  0  0  0  0  0  0  0  0  0  0
   -2.9653    2.6145   -2.2388 H   0  0  0  0  0  0  0  0  0  0  0  0
   -3.8976   -0.8696   -1.1703 H   0  0  0  0  0  0  0  0  0  0  0  0
   -3.3876   -0.6240   -2.8667 H   0  0  0  0  0  0  0  0  0  0  0  0
   -1.6182   -2.3706   -2.5595 H   0  0  0  0  0  0  0  0  0  0  0  0
   -2.1711   -2.6460   -0.9089 H   0  0  0  0  0  0  0  0  0  0  0  0
   -3.2397   -3.0253   -2.2696 H   0  0  0  0  0  0  0  0  0  0  0  0
  1  2  1  0  0  0  0
  2  3  1  0  0  0  0
  3  4  2  0  0  0  0
  4  5  2  0  0  0  0
  4  6  2  0  0  0  0
  6  7  1  0  0  0  0
  7  8  1  0  0  0  0
  4  9  1  0  0  0  0
  9 10  1  0  0  0  0
 10 11  1  0  0  0  0
 11 12  1  0  0  0  0
 12 13  2  0  0  0  0
 12 14  1  0  0  0  0
 14 15  1  0  0  0  0
 15 16  1  0  0  0  0
 12 17  2  0  0  0  0
 17 18  1  0  0  0  0
 18 19  1  0  0  0  0
  1 20  1  0  0  0  0
  1 21  1  0  0  0  0
  1 22  1  0  0  0  0
  2 23  1  0  0  0  0
  2 24  1  0  0  0  0
  7 25  1  0  0  0  0
  7 26  1  0  0  0  0
  8 27  1  0  0  0  0
  8 28  1  0  0  0  0
  8 29  1  0  0  0  0
 10 30  1  0  0  0  0
 10 31  1  0  0  0  0
 15 32  1  0  0  0  0
 15 33  1  0  0  0  0
 16 34  1  0  0  0  0
 16 35  1  0  0  0  0
 16 36  1  0  0  0  0
 18 37  1  0  0  0  0
 18 38  1  0  0  0  0
 19 39  1  0  0  0  0
 19 40  1  0  0  0  0
 19 41  1  0  0  0  0
M  END
