 xtb: 6.7.1 (edcfbbe)
          04092505203D

 41 40  0     0  0            999 V2000
    5.8379   -0.3022    0.2633 C   0  0  0  0  0  0  0  0  0  0  0  0
    4.5115   -0.6646   -0.3736 C   0  0  0  0  0  0  0  0  0  0  0  0
    3.4703    0.0280    0.3428 O   0  0  0  0  0  0  0  0  0  0  0  0
    2.0219    0.2294   -0.2811 P   0  0  0  0  0  0  0  0  0  0  0  0
    2.0262    0.8859   -2.1320 S   0  0  0  0  0  0  0  0  0  0  0  0
    1.3348    1.1102    0.8373 O   0  0  0  0  0  0  0  0  0  0  0  0
    1.3710    2.5509    0.8168 C   0  0  0  0  0  0  0  0  0  0  0  0
    2.7762    3.0846    0.9882 C   0  0  0  0  0  0  0  0  0  0  0  0
    1.1613   -1.6608    0.0477 S   0  0  0  0  0  0  0  0  0  0  0  0
   -0.0645   -1.7423   -1.3051 C   0  0  0  0  0  0  0  0  0  0  0  0
   -1.7474   -1.9607   -0.6938 S   0  0  0  0  0  0  0  0  0  0  0  0
   -2.0128   -0.0202    0.1342 P   0  0  0  0  0  0  0  0  0  0  0  0
   -1.3642    1.4493   -0.9886 S   0  0  0  0  0  0  0  0  0  0  0  0
   -1.3670    0.0072    1.5664 O   0  0  0  0  0  0  0  0  0  0  0  0
   -1.3690   -1.0626    2.5485 C   0  0  0  0  0  0  0  0  0  0  0  0
   -2.7540   -1.5873    2.8539 C   0  0  0  0  0  0  0  0  0  0  0  0
   -3.5688    0.0321    0.4338 O   0  0  0  0  0  0  0  0  0  0  0  0
   -4.5324    0.1522   -0.6320 C   0  0  0  0  0  0  0  0  0  0  0  0
   -5.8493    0.5853   -0.0207 C   0  0  0  0  0  0  0  0  0  0  0  0
    6.0168    0.7658    0.1768 H   0  0  0  0  0  0  0  0  0  0  0  0
    5.8291   -0.5741    1.3146 H   0  0  0  0  0  0  0  0  0  0  0  0
    6.6330   -0.8402   -0.2421 H   0  0  0  0  0  0  0  0  0  0  0  0
    4.3160   -1.7382   -0.3045 H   0  0  0  0  0  0  0  0  0  0  0  0
    4.4716   -0.3604   -1.4251 H   0  0  0  0  0  0  0  0  0  0  0  0
    0.9312    2.8939   -0.1260 H   0  0  0  0  0  0  0  0  0  0  0  0
    0.7174    2.8353    1.6430 H   0  0  0  0  0  0  0  0  0  0  0  0
    3.3808    2.8121    0.1237 H   0  0  0  0  0  0  0  0  0  0  0  0
    2.7407    4.1667    1.0672 H   0  0  0  0  0  0  0  0  0  0  0  0
    3.2294    2.6665    1.8832 H   0  0  0  0  0  0  0  0  0  0  0  0
    0.1585   -2.6181   -1.9087 H   0  0  0  0  0  0  0  0  0  0  0  0
    0.0061   -0.8248   -1.8963 H   0  0  0  0  0  0  0  0  0  0  0  0
   -0.7176   -1.8608    2.1809 H   0  0  0  0  0  0  0  0  0  0  0  0
   -0.9122   -0.5913    3.4200 H   0  0  0  0  0  0  0  0  0  0  0  0
   -3.4142   -0.7699    3.1315 H   0  0  0  0  0  0  0  0  0  0  0  0
   -3.1669   -2.0971    1.9860 H   0  0  0  0  0  0  0  0  0  0  0  0
   -2.6867   -2.2916    3.6775 H   0  0  0  0  0  0  0  0  0  0  0  0
   -4.1635    0.8867   -1.3558 H   0  0  0  0  0  0  0  0  0  0  0  0
   -4.6192   -0.8207   -1.1229 H   0  0  0  0  0  0  0  0  0  0  0  0
   -5.7324    1.5448    0.4753 H   0  0  0  0  0  0  0  0  0  0  0  0
   -6.5925    0.6766   -0.8059 H   0  0  0  0  0  0  0  0  0  0  0  0
   -6.1812   -0.1500    0.7061 H   0  0  0  0  0  0  0  0  0  0  0  0
  1  2  1  0  0  0  0
  2  3  1  0  0  0  0
  3  4  2  0  0  0  0
  4  5  2  0  0  0  0
  4  6  2  0  0  0  0
  6  7  1  0  0  0  0
  7  8  1  0  0  0  0
  4  9  1  0  0  0  0
  9 10  1  0  0  0  0
 10 11  1  0  0  0  0
 11 12  1  0  0  0  0
 12 13  2  0  0  0  0
 12 14  2  0  0  0  0
 14 15  1  0  0  0  0
 15 16  1  0  0  0  0
 12 17  2  0  0  0  0
 17 18  1  0  0  0  0
 18 19  1  0  0  0  0
  1 20  1  0  0  0  0
  1 21  1  0  0  0  0
  1 22  1  0  0  0  0
  2 23  1  0  0  0  0
  2 24  1  0  0  0  0
  7 25  1  0  0  0  0
  7 26  1  0  0  0  0
  8 27  1  0  0  0  0
  8 28  1  0  0  0  0
  8 29  1  0  0  0  0
 10 30  1  0  0  0  0
 10 31  1  0  0  0  0
 15 32  1  0  0  0  0
 15 33  1  0  0  0  0
 16 34  1  0  0  0  0
 16 35  1  0  0  0  0
 16 36  1  0  0  0  0
 18 37  1  0  0  0  0
 18 38  1  0  0  0  0
 19 39  1  0  0  0  0
 19 40  1  0  0  0  0
 19 41  1  0  0  0  0
M  END
