 xtb: 6.7.1 (edcfbbe)
          04092507313D

 38 37  0     0  0            999 V2000
    4.3264   -3.4774   -1.5424 C   0  0  0  0  0  0  0  0  0  0  0  0
    2.9493   -3.0003   -1.9763 C   0  0  0  0  0  0  0  0  0  0  0  0
    2.6614   -1.6950   -1.4407 O   0  0  0  0  0  0  0  0  0  0  0  0
    2.1492   -1.6138   -0.2295 C   0  0  0  0  0  0  0  0  0  0  0  0
    1.9070   -2.5599    0.4848 O   0  0  0  0  0  0  0  0  0  0  0  0
    1.8765   -0.1712    0.1618 C   0  0  0  0  0  0  0  0  0  0  0  0
    0.9953    0.5015   -0.8936 C   0  0  0  0  0  0  0  0  0  0  0  0
    1.5552    0.6389   -1.8209 H   0  0  0  0  0  0  0  0  0  0  0  0
    0.4747    1.8301   -0.3849 C   0  0  0  0  0  0  0  0  0  0  0  0
   -0.7138    2.0266   -0.2049 O   0  0  0  0  0  0  0  0  0  0  0  0
    1.4226    2.6881   -0.1614 O   0  0  0  0  0  0  0  0  0  0  0  0
    1.0751    3.9580    0.4404 C   0  0  0  0  0  0  0  0  0  0  0  0
    1.0089    3.8267    1.9528 C   0  0  0  0  0  0  0  0  0  0  0  0
   -0.4512   -0.5214   -1.3468 S   0  0  0  0  0  0  0  0  0  0  0  0
   -1.7360   -0.1604    0.2917 P   0  0  0  0  0  0  0  0  0  0  0  0
   -1.1685    0.2954    2.1240 S   0  0  0  0  0  0  0  0  0  0  0  0
   -3.0707    0.5674   -0.2003 O   0  0  0  0  0  0  0  0  0  0  0  0
   -3.4575    1.9099    0.0931 C   0  0  0  0  0  0  0  0  0  0  0  0
   -2.2601   -1.6789    0.2124 O   0  0  0  0  0  0  0  0  0  0  0  0
   -3.2501   -2.1760    1.1152 C   0  0  0  0  0  0  0  0  0  0  0  0
    4.5398   -4.4311   -2.0135 H   0  0  0  0  0  0  0  0  0  0  0  0
    5.0827   -2.7549   -1.8357 H   0  0  0  0  0  0  0  0  0  0  0  0
    4.3544   -3.6038   -0.4625 H   0  0  0  0  0  0  0  0  0  0  0  0
    2.1734   -3.6931   -1.6385 H   0  0  0  0  0  0  0  0  0  0  0  0
    2.8942   -2.8672   -3.0566 H   0  0  0  0  0  0  0  0  0  0  0  0
    2.8212    0.3695    0.2342 H   0  0  0  0  0  0  0  0  0  0  0  0
    1.3856   -0.1767    1.1375 H   0  0  0  0  0  0  0  0  0  0  0  0
    1.8757    4.6287    0.1303 H   0  0  0  0  0  0  0  0  0  0  0  0
    0.1157    4.2871    0.0344 H   0  0  0  0  0  0  0  0  0  0  0  0
    1.9683    3.5051    2.3473 H   0  0  0  0  0  0  0  0  0  0  0  0
    0.7479    4.7865    2.3856 H   0  0  0  0  0  0  0  0  0  0  0  0
    0.2539    3.0956    2.2384 H   0  0  0  0  0  0  0  0  0  0  0  0
   -3.1062    2.5698   -0.6970 H   0  0  0  0  0  0  0  0  0  0  0  0
   -3.0355    2.2215    1.0495 H   0  0  0  0  0  0  0  0  0  0  0  0
   -4.5444    1.9020    0.1384 H   0  0  0  0  0  0  0  0  0  0  0  0
   -3.2282   -3.2578    1.0099 H   0  0  0  0  0  0  0  0  0  0  0  0
   -4.2305   -1.7826    0.8484 H   0  0  0  0  0  0  0  0  0  0  0  0
   -3.0013   -1.8902    2.1397 H   0  0  0  0  0  0  0  0  0  0  0  0
  1  2  1  0  0  0  0
  2  3  1  0  0  0  0
  3  4  1  0  0  0  0
  4  5  2  0  0  0  0
  4  6  1  0  0  0  0
  6  7  1  0  0  0  0
  7  8  1  0  0  0  0
  7  9  1  0  0  0  0
  9 10  2  0  0  0  0
  9 11  4  0  0  0  0
 11 12  1  0  0  0  0
 12 13  1  0  0  0  0
  7 14  1  0  0  0  0
 14 15  1  0  0  0  0
 15 16  2  0  0  0  0
 15 17  2  0  0  0  0
 17 18  1  0  0  0  0
 15 19  1  0  0  0  0
 19 20  1  0  0  0  0
  1 21  1  0  0  0  0
  1 22  1  0  0  0  0
  1 23  1  0  0  0  0
  2 24  1  0  0  0  0
  2 25  1  0  0  0  0
  6 26  1  0  0  0  0
  6 27  1  0  0  0  0
 12 28  1  0  0  0  0
 12 29  1  0  0  0  0
 13 30  1  0  0  0  0
 13 31  1  0  0  0  0
 13 32  1  0  0  0  0
 18 33  1  0  0  0  0
 18 34  1  0  0  0  0
 18 35  1  0  0  0  0
 20 36  1  0  0  0  0
 20 37  1  0  0  0  0
 20 38  1  0  0  0  0
M  END
