 xtb: 6.7.1 (edcfbbe)
          04092505203D

 41 40  0     0  0            999 V2000
    4.0798   -0.3088   -2.2654 C   0  0  0  0  0  0  0  0  0  0  0  0
    4.3551   -0.5666   -0.7972 C   0  0  0  0  0  0  0  0  0  0  0  0
    3.1439   -0.7069   -0.0392 O   0  0  0  0  0  0  0  0  0  0  0  0
    2.1896    0.5393    0.2604 P   0  0  0  0  0  0  0  0  0  0  0  0
    3.1123    2.2386    0.5689 S   0  0  0  0  0  0  0  0  0  0  0  0
    1.3085   -0.0099    1.4569 O   0  0  0  0  0  0  0  0  0  0  0  0
    1.7093    0.1471    2.8352 C   0  0  0  0  0  0  0  0  0  0  0  0
    2.9487   -0.6580    3.1623 C   0  0  0  0  0  0  0  0  0  0  0  0
    0.7353    0.5120   -1.2786 S   0  0  0  0  0  0  0  0  0  0  0  0
    0.2222   -1.2280   -1.1442 C   0  0  0  0  0  0  0  0  0  0  0  0
   -0.9527   -1.5444    0.1940 S   0  0  0  0  0  0  0  0  0  0  0  0
   -2.4613   -0.2041   -0.4823 P   0  0  0  0  0  0  0  0  0  0  0  0
   -2.6864   -0.0656   -2.4195 S   0  0  0  0  0  0  0  0  0  0  0  0
   -2.1352    1.2182    0.1206 O   0  0  0  0  0  0  0  0  0  0  0  0
   -1.9472    1.4587    1.5362 C   0  0  0  0  0  0  0  0  0  0  0  0
   -1.0854    2.6947    1.6918 C   0  0  0  0  0  0  0  0  0  0  0  0
   -3.7168   -0.6205    0.4016 O   0  0  0  0  0  0  0  0  0  0  0  0
   -4.2294   -1.9592    0.5492 C   0  0  0  0  0  0  0  0  0  0  0  0
   -4.5249   -2.6258   -0.7777 C   0  0  0  0  0  0  0  0  0  0  0  0
    3.4572   -1.0954   -2.6843 H   0  0  0  0  0  0  0  0  0  0  0  0
    3.5667    0.6455   -2.3849 H   0  0  0  0  0  0  0  0  0  0  0  0
    5.0200   -0.2708   -2.8063 H   0  0  0  0  0  0  0  0  0  0  0  0
    4.9381    0.2556   -0.3697 H   0  0  0  0  0  0  0  0  0  0  0  0
    4.8768   -1.5122   -0.6437 H   0  0  0  0  0  0  0  0  0  0  0  0
    1.8779    1.2116    3.0257 H   0  0  0  0  0  0  0  0  0  0  0  0
    0.8425   -0.2018    3.3982 H   0  0  0  0  0  0  0  0  0  0  0  0
    2.8093   -1.6967    2.8746 H   0  0  0  0  0  0  0  0  0  0  0  0
    3.8062   -0.2533    2.6266 H   0  0  0  0  0  0  0  0  0  0  0  0
    3.1417   -0.6005    4.2290 H   0  0  0  0  0  0  0  0  0  0  0  0
    1.0885   -1.8574   -0.9571 H   0  0  0  0  0  0  0  0  0  0  0  0
   -0.2534   -1.4624   -2.0960 H   0  0  0  0  0  0  0  0  0  0  0  0
   -2.9338    1.6005    1.9810 H   0  0  0  0  0  0  0  0  0  0  0  0
   -1.4704    0.5798    1.9817 H   0  0  0  0  0  0  0  0  0  0  0  0
   -0.1031    2.5351    1.2494 H   0  0  0  0  0  0  0  0  0  0  0  0
   -1.5505    3.5381    1.1896 H   0  0  0  0  0  0  0  0  0  0  0  0
   -0.9681    2.9215    2.7466 H   0  0  0  0  0  0  0  0  0  0  0  0
   -3.5003   -2.5404    1.1204 H   0  0  0  0  0  0  0  0  0  0  0  0
   -5.1381   -1.8204    1.1377 H   0  0  0  0  0  0  0  0  0  0  0  0
   -3.6037   -2.7689   -1.3402 H   0  0  0  0  0  0  0  0  0  0  0  0
   -4.9870   -3.5916   -0.6006 H   0  0  0  0  0  0  0  0  0  0  0  0
   -5.1946   -2.0084   -1.3717 H   0  0  0  0  0  0  0  0  0  0  0  0
  1  2  1  0  0  0  0
  2  3  1  0  0  0  0
  3  4  1  0  0  0  0
  4  5  2  0  0  0  0
  4  6  2  0  0  0  0
  6  7  1  0  0  0  0
  7  8  1  0  0  0  0
  4  9  1  0  0  0  0
  9 10  1  0  0  0  0
 10 11  1  0  0  0  0
 11 12  1  0  0  0  0
 12 13  2  0  0  0  0
 12 14  2  0  0  0  0
 14 15  1  0  0  0  0
 15 16  1  0  0  0  0
 12 17  2  0  0  0  0
 17 18  1  0  0  0  0
 18 19  1  0  0  0  0
  1 20  1  0  0  0  0
  1 21  1  0  0  0  0
  1 22  1  0  0  0  0
  2 23  1  0  0  0  0
  2 24  1  0  0  0  0
  7 25  1  0  0  0  0
  7 26  1  0  0  0  0
  8 27  1  0  0  0  0
  8 28  1  0  0  0  0
  8 29  1  0  0  0  0
 10 30  1  0  0  0  0
 10 31  1  0  0  0  0
 15 32  1  0  0  0  0
 15 33  1  0  0  0  0
 16 34  1  0  0  0  0
 16 35  1  0  0  0  0
 16 36  1  0  0  0  0
 18 37  1  0  0  0  0
 18 38  1  0  0  0  0
 19 39  1  0  0  0  0
 19 40  1  0  0  0  0
 19 41  1  0  0  0  0
M  END
