 xtb: 6.7.1 (edcfbbe)
          04092505203D

 41 40  0     0  0            999 V2000
    3.4263   -1.1236   -2.9300 C   0  0  0  0  0  0  0  0  0  0  0  0
    4.1592   -1.0482   -1.6077 C   0  0  0  0  0  0  0  0  0  0  0  0
    3.6021   -0.0671   -0.7110 O   0  0  0  0  0  0  0  0  0  0  0  0
    2.0674    0.0468   -0.3172 P   0  0  0  0  0  0  0  0  0  0  0  0
    0.9006    0.9512   -1.6015 S   0  0  0  0  0  0  0  0  0  0  0  0
    2.1127    0.8832    1.0156 O   0  0  0  0  0  0  0  0  0  0  0  0
    2.9123    0.5410    2.1740 C   0  0  0  0  0  0  0  0  0  0  0  0
    4.1945    1.3471    2.1918 C   0  0  0  0  0  0  0  0  0  0  0  0
    1.6200   -1.9616    0.2319 S   0  0  0  0  0  0  0  0  0  0  0  0
   -0.0358   -1.7485    0.9322 C   0  0  0  0  0  0  0  0  0  0  0  0
   -1.3297   -1.4204   -0.3005 S   0  0  0  0  0  0  0  0  0  0  0  0
   -1.9972    0.5096    0.3230 P   0  0  0  0  0  0  0  0  0  0  0  0
   -1.0131    1.2607    1.8405 S   0  0  0  0  0  0  0  0  0  0  0  0
   -3.5446    0.2569    0.6190 O   0  0  0  0  0  0  0  0  0  0  0  0
   -3.9675   -0.5553    1.7312 C   0  0  0  0  0  0  0  0  0  0  0  0
   -5.4619   -0.3704    1.9002 C   0  0  0  0  0  0  0  0  0  0  0  0
   -2.0837    1.5006   -0.8885 O   0  0  0  0  0  0  0  0  0  0  0  0
   -3.0147    1.4165   -1.9963 C   0  0  0  0  0  0  0  0  0  0  0  0
   -2.8121    0.1660   -2.8240 C   0  0  0  0  0  0  0  0  0  0  0  0
    3.3916   -0.1443   -3.4017 H   0  0  0  0  0  0  0  0  0  0  0  0
    3.9360   -1.8226   -3.5852 H   0  0  0  0  0  0  0  0  0  0  0  0
    2.4034   -1.4641   -2.7733 H   0  0  0  0  0  0  0  0  0  0  0  0
    5.1902   -0.7161   -1.7419 H   0  0  0  0  0  0  0  0  0  0  0  0
    4.1422   -2.0168   -1.1007 H   0  0  0  0  0  0  0  0  0  0  0  0
    2.2723    0.7865    3.0246 H   0  0  0  0  0  0  0  0  0  0  0  0
    3.1199   -0.5329    2.1604 H   0  0  0  0  0  0  0  0  0  0  0  0
    3.9648    2.4090    2.1738 H   0  0  0  0  0  0  0  0  0  0  0  0
    4.7469    1.1141    3.0967 H   0  0  0  0  0  0  0  0  0  0  0  0
    4.8026    1.1061    1.3239 H   0  0  0  0  0  0  0  0  0  0  0  0
   -0.0317   -0.9236    1.6514 H   0  0  0  0  0  0  0  0  0  0  0  0
   -0.2655   -2.6962    1.4123 H   0  0  0  0  0  0  0  0  0  0  0  0
   -3.7166   -1.5966    1.5089 H   0  0  0  0  0  0  0  0  0  0  0  0
   -3.4187   -0.2346    2.6229 H   0  0  0  0  0  0  0  0  0  0  0  0
   -5.8024   -0.9759    2.7336 H   0  0  0  0  0  0  0  0  0  0  0  0
   -5.6880    0.6734    2.0991 H   0  0  0  0  0  0  0  0  0  0  0  0
   -5.9797   -0.6776    0.9963 H   0  0  0  0  0  0  0  0  0  0  0  0
   -4.0280    1.4696   -1.5936 H   0  0  0  0  0  0  0  0  0  0  0  0
   -2.7884    2.3161   -2.5706 H   0  0  0  0  0  0  0  0  0  0  0  0
   -1.7676    0.0833   -3.1180 H   0  0  0  0  0  0  0  0  0  0  0  0
   -3.0893   -0.7195   -2.2537 H   0  0  0  0  0  0  0  0  0  0  0  0
   -3.4317    0.2232   -3.7133 H   0  0  0  0  0  0  0  0  0  0  0  0
  1  2  1  0  0  0  0
  2  3  1  0  0  0  0
  3  4  2  0  0  0  0
  4  5  2  0  0  0  0
  4  6  2  0  0  0  0
  6  7  1  0  0  0  0
  7  8  1  0  0  0  0
  4  9  1  0  0  0  0
  9 10  1  0  0  0  0
 10 11  1  0  0  0  0
 11 12  1  0  0  0  0
 12 13  2  0  0  0  0
 12 14  2  0  0  0  0
 14 15  1  0  0  0  0
 15 16  1  0  0  0  0
 12 17  2  0  0  0  0
 17 18  1  0  0  0  0
 18 19  1  0  0  0  0
  1 20  1  0  0  0  0
  1 21  1  0  0  0  0
  1 22  1  0  0  0  0
  2 23  1  0  0  0  0
  2 24  1  0  0  0  0
  7 25  1  0  0  0  0
  7 26  1  0  0  0  0
  8 27  1  0  0  0  0
  8 28  1  0  0  0  0
  8 29  1  0  0  0  0
 10 30  1  0  0  0  0
 10 31  1  0  0  0  0
 15 32  1  0  0  0  0
 15 33  1  0  0  0  0
 16 34  1  0  0  0  0
 16 35  1  0  0  0  0
 16 36  1  0  0  0  0
 18 37  1  0  0  0  0
 18 38  1  0  0  0  0
 19 39  1  0  0  0  0
 19 40  1  0  0  0  0
 19 41  1  0  0  0  0
M  END
