 xtb: 6.7.1 (edcfbbe)
          04092505203D

 41 40  0     0  0            999 V2000
    4.1534   -1.3231   -2.4490 C   0  0  0  0  0  0  0  0  0  0  0  0
    4.2109    0.0844   -1.8925 C   0  0  0  0  0  0  0  0  0  0  0  0
    3.5318    0.2038   -0.6277 O   0  0  0  0  0  0  0  0  0  0  0  0
    1.9612    0.0299   -0.4778 P   0  0  0  0  0  0  0  0  0  0  0  0
    0.8842    0.8193   -1.9049 S   0  0  0  0  0  0  0  0  0  0  0  0
    1.6644    0.6670    0.9330 O   0  0  0  0  0  0  0  0  0  0  0  0
    2.3215    0.2762    2.1637 C   0  0  0  0  0  0  0  0  0  0  0  0
    3.5124    1.1663    2.4488 C   0  0  0  0  0  0  0  0  0  0  0  0
    1.6865   -2.0573   -0.2037 S   0  0  0  0  0  0  0  0  0  0  0  0
   -0.1176   -2.0284   -0.3090 C   0  0  0  0  0  0  0  0  0  0  0  0
   -0.9150   -1.3714    1.1982 S   0  0  0  0  0  0  0  0  0  0  0  0
   -1.8833    0.4135    0.5956 P   0  0  0  0  0  0  0  0  0  0  0  0
   -1.0907    2.1890    0.8071 S   0  0  0  0  0  0  0  0  0  0  0  0
   -3.1764    0.3907    1.5171 O   0  0  0  0  0  0  0  0  0  0  0  0
   -3.9692   -0.7507    1.9183 C   0  0  0  0  0  0  0  0  0  0  0  0
   -4.6187   -1.4578    0.7473 C   0  0  0  0  0  0  0  0  0  0  0  0
   -2.2968    0.0076   -0.8945 O   0  0  0  0  0  0  0  0  0  0  0  0
   -2.5918    1.0004   -1.8906 C   0  0  0  0  0  0  0  0  0  0  0  0
   -3.9514    1.6247   -1.6596 C   0  0  0  0  0  0  0  0  0  0  0  0
    4.7989   -1.3876   -3.3190 H   0  0  0  0  0  0  0  0  0  0  0  0
    4.4818   -2.0405   -1.7011 H   0  0  0  0  0  0  0  0  0  0  0  0
    3.1351   -1.5661   -2.7475 H   0  0  0  0  0  0  0  0  0  0  0  0
    3.7608    0.7951   -2.5922 H   0  0  0  0  0  0  0  0  0  0  0  0
    5.2341    0.3867   -1.6648 H   0  0  0  0  0  0  0  0  0  0  0  0
    1.5471    0.3895    2.9259 H   0  0  0  0  0  0  0  0  0  0  0  0
    2.6164   -0.7749    2.0893 H   0  0  0  0  0  0  0  0  0  0  0  0
    4.2743    1.0355    1.6851 H   0  0  0  0  0  0  0  0  0  0  0  0
    3.2001    2.2074    2.4601 H   0  0  0  0  0  0  0  0  0  0  0  0
    3.9242    0.9041    3.4183 H   0  0  0  0  0  0  0  0  0  0  0  0
   -0.4357   -3.0625   -0.4080 H   0  0  0  0  0  0  0  0  0  0  0  0
   -0.4208   -1.4272   -1.1661 H   0  0  0  0  0  0  0  0  0  0  0  0
   -3.3293   -1.4336    2.4819 H   0  0  0  0  0  0  0  0  0  0  0  0
   -4.7139   -0.3115    2.5843 H   0  0  0  0  0  0  0  0  0  0  0  0
   -3.8606   -1.8663    0.0828 H   0  0  0  0  0  0  0  0  0  0  0  0
   -5.2341   -2.2690    1.1239 H   0  0  0  0  0  0  0  0  0  0  0  0
   -5.2434   -0.7661    0.1884 H   0  0  0  0  0  0  0  0  0  0  0  0
   -1.8057    1.7625   -1.8719 H   0  0  0  0  0  0  0  0  0  0  0  0
   -2.5418    0.4567   -2.8352 H   0  0  0  0  0  0  0  0  0  0  0  0
   -3.9661    2.1133   -0.6854 H   0  0  0  0  0  0  0  0  0  0  0  0
   -4.1399    2.3660   -2.4296 H   0  0  0  0  0  0  0  0  0  0  0  0
   -4.7278    0.8652   -1.6917 H   0  0  0  0  0  0  0  0  0  0  0  0
  1  2  1  0  0  0  0
  2  3  1  0  0  0  0
  3  4  2  0  0  0  0
  4  5  2  0  0  0  0
  4  6  2  0  0  0  0
  6  7  1  0  0  0  0
  7  8  1  0  0  0  0
  4  9  1  0  0  0  0
  9 10  1  0  0  0  0
 10 11  1  0  0  0  0
 11 12  1  0  0  0  0
 12 13  2  0  0  0  0
 12 14  2  0  0  0  0
 14 15  1  0  0  0  0
 15 16  1  0  0  0  0
 12 17  1  0  0  0  0
 17 18  1  0  0  0  0
 18 19  1  0  0  0  0
  1 20  1  0  0  0  0
  1 21  1  0  0  0  0
  1 22  1  0  0  0  0
  2 23  1  0  0  0  0
  2 24  1  0  0  0  0
  7 25  1  0  0  0  0
  7 26  1  0  0  0  0
  8 27  1  0  0  0  0
  8 28  1  0  0  0  0
  8 29  1  0  0  0  0
 10 30  1  0  0  0  0
 10 31  1  0  0  0  0
 15 32  1  0  0  0  0
 15 33  1  0  0  0  0
 16 34  1  0  0  0  0
 16 35  1  0  0  0  0
 16 36  1  0  0  0  0
 18 37  1  0  0  0  0
 18 38  1  0  0  0  0
 19 39  1  0  0  0  0
 19 40  1  0  0  0  0
 19 41  1  0  0  0  0
M  END
