 xtb: 6.7.1 (edcfbbe)
          04092505213D

 41 40  0     0  0            999 V2000
    3.0691   -1.8440   -2.0070 C   0  0  0  0  0  0  0  0  0  0  0  0
    1.6487   -1.3242   -1.9880 C   0  0  0  0  0  0  0  0  0  0  0  0
    1.2427   -0.9365   -0.6597 O   0  0  0  0  0  0  0  0  0  0  0  0
    1.9084    0.2871    0.0895 P   0  0  0  0  0  0  0  0  0  0  0  0
    2.6916    1.7465   -0.9531 S   0  0  0  0  0  0  0  0  0  0  0  0
    2.9574   -0.4983    1.0017 O   0  0  0  0  0  0  0  0  0  0  0  0
    3.9346    0.1931    1.7997 C   0  0  0  0  0  0  0  0  0  0  0  0
    5.0383   -0.7883    2.1405 C   0  0  0  0  0  0  0  0  0  0  0  0
    0.4070    0.8301    1.4771 S   0  0  0  0  0  0  0  0  0  0  0  0
   -0.2073   -0.8300    1.8684 C   0  0  0  0  0  0  0  0  0  0  0  0
   -1.4323   -1.4910    0.6769 S   0  0  0  0  0  0  0  0  0  0  0  0
   -2.0668    0.2288   -0.4077 P   0  0  0  0  0  0  0  0  0  0  0  0
   -0.9179    1.0851   -1.7491 S   0  0  0  0  0  0  0  0  0  0  0  0
   -2.5804    1.2614    0.6630 O   0  0  0  0  0  0  0  0  0  0  0  0
   -3.5300    0.9390    1.7147 C   0  0  0  0  0  0  0  0  0  0  0  0
   -3.1455    1.7241    2.9521 C   0  0  0  0  0  0  0  0  0  0  0  0
   -3.4295   -0.3241   -1.0214 O   0  0  0  0  0  0  0  0  0  0  0  0
   -3.5076   -0.9833   -2.2968 C   0  0  0  0  0  0  0  0  0  0  0  0
   -2.7857   -2.3150   -2.2944 C   0  0  0  0  0  0  0  0  0  0  0  0
    3.3081   -2.1968   -3.0052 H   0  0  0  0  0  0  0  0  0  0  0  0
    3.7557   -1.0410   -1.7408 H   0  0  0  0  0  0  0  0  0  0  0  0
    3.1799   -2.6575   -1.2950 H   0  0  0  0  0  0  0  0  0  0  0  0
    0.9285   -2.0970   -2.2625 H   0  0  0  0  0  0  0  0  0  0  0  0
    1.5301   -0.4608   -2.6510 H   0  0  0  0  0  0  0  0  0  0  0  0
    4.3145    1.0440    1.2238 H   0  0  0  0  0  0  0  0  0  0  0  0
    3.4395    0.5684    2.7002 H   0  0  0  0  0  0  0  0  0  0  0  0
    4.6278   -1.6386    2.6768 H   0  0  0  0  0  0  0  0  0  0  0  0
    5.5174   -1.1417    1.2320 H   0  0  0  0  0  0  0  0  0  0  0  0
    5.7750   -0.2912    2.7627 H   0  0  0  0  0  0  0  0  0  0  0  0
   -0.6851   -0.7587    2.8427 H   0  0  0  0  0  0  0  0  0  0  0  0
    0.6246   -1.5316    1.8872 H   0  0  0  0  0  0  0  0  0  0  0  0
   -4.5179    1.2224    1.3477 H   0  0  0  0  0  0  0  0  0  0  0  0
   -3.5091   -0.1396    1.8941 H   0  0  0  0  0  0  0  0  0  0  0  0
   -3.8286    1.4772    3.7583 H   0  0  0  0  0  0  0  0  0  0  0  0
   -2.1274    1.4851    3.2501 H   0  0  0  0  0  0  0  0  0  0  0  0
   -3.1982    2.7895    2.7477 H   0  0  0  0  0  0  0  0  0  0  0  0
   -4.5791   -1.1028   -2.4622 H   0  0  0  0  0  0  0  0  0  0  0  0
   -3.0844   -0.3168   -3.0551 H   0  0  0  0  0  0  0  0  0  0  0  0
   -1.7170   -2.1497   -2.1614 H   0  0  0  0  0  0  0  0  0  0  0  0
   -3.1473   -2.9421   -1.4835 H   0  0  0  0  0  0  0  0  0  0  0  0
   -2.9495   -2.8154   -3.2432 H   0  0  0  0  0  0  0  0  0  0  0  0
  1  2  1  0  0  0  0
  2  3  1  0  0  0  0
  3  4  2  0  0  0  0
  4  5  2  0  0  0  0
  4  6  2  0  0  0  0
  6  7  1  0  0  0  0
  7  8  1  0  0  0  0
  4  9  1  0  0  0  0
  9 10  1  0  0  0  0
 10 11  1  0  0  0  0
 11 12  1  0  0  0  0
 12 13  2  0  0  0  0
 12 14  2  0  0  0  0
 14 15  1  0  0  0  0
 15 16  1  0  0  0  0
 12 17  2  0  0  0  0
 17 18  1  0  0  0  0
 18 19  1  0  0  0  0
  1 20  1  0  0  0  0
  1 21  1  0  0  0  0
  1 22  1  0  0  0  0
  2 23  1  0  0  0  0
  2 24  1  0  0  0  0
  7 25  1  0  0  0  0
  7 26  1  0  0  0  0
  8 27  1  0  0  0  0
  8 28  1  0  0  0  0
  8 29  1  0  0  0  0
 10 30  1  0  0  0  0
 10 31  1  0  0  0  0
 15 32  1  0  0  0  0
 15 33  1  0  0  0  0
 16 34  1  0  0  0  0
 16 35  1  0  0  0  0
 16 36  1  0  0  0  0
 18 37  1  0  0  0  0
 18 38  1  0  0  0  0
 19 39  1  0  0  0  0
 19 40  1  0  0  0  0
 19 41  1  0  0  0  0
M  END
