 xtb: 6.7.1 (edcfbbe)
          04092505213D

 41 40  0     0  0            999 V2000
    3.8885    1.2417   -1.6390 C   0  0  0  0  0  0  0  0  0  0  0  0
    2.4720    1.5323   -1.1915 C   0  0  0  0  0  0  0  0  0  0  0  0
    1.7614    0.3178   -0.9003 O   0  0  0  0  0  0  0  0  0  0  0  0
    2.0535   -0.5593    0.3880 P   0  0  0  0  0  0  0  0  0  0  0  0
    2.7537    0.4633    1.9125 S   0  0  0  0  0  0  0  0  0  0  0  0
    2.9875   -1.6868   -0.2247 O   0  0  0  0  0  0  0  0  0  0  0  0
    3.1844   -3.0057    0.3198 C   0  0  0  0  0  0  0  0  0  0  0  0
    3.5298   -2.9927    1.7945 C   0  0  0  0  0  0  0  0  0  0  0  0
    0.2097   -1.5359    0.6676 S   0  0  0  0  0  0  0  0  0  0  0  0
   -0.5529   -0.2515    1.6981 C   0  0  0  0  0  0  0  0  0  0  0  0
   -0.7494    1.3425    0.8557 S   0  0  0  0  0  0  0  0  0  0  0  0
   -1.9401    0.7391   -0.8004 P   0  0  0  0  0  0  0  0  0  0  0  0
   -1.1571   -0.1264   -2.3688 S   0  0  0  0  0  0  0  0  0  0  0  0
   -2.5694    2.1166   -1.2594 O   0  0  0  0  0  0  0  0  0  0  0  0
   -3.0447    3.1932   -0.4171 C   0  0  0  0  0  0  0  0  0  0  0  0
   -4.1660    2.7629    0.5042 C   0  0  0  0  0  0  0  0  0  0  0  0
   -3.0954   -0.0973   -0.0849 O   0  0  0  0  0  0  0  0  0  0  0  0
   -3.5741   -1.3859   -0.5182 C   0  0  0  0  0  0  0  0  0  0  0  0
   -3.3211   -2.4341    0.5471 C   0  0  0  0  0  0  0  0  0  0  0  0
    3.8791    0.5750   -2.4974 H   0  0  0  0  0  0  0  0  0  0  0  0
    4.3837    2.1707   -1.9030 H   0  0  0  0  0  0  0  0  0  0  0  0
    4.4347    0.7618   -0.8271 H   0  0  0  0  0  0  0  0  0  0  0  0
    1.8805    2.0020   -1.9797 H   0  0  0  0  0  0  0  0  0  0  0  0
    2.4659    2.1643   -0.2961 H   0  0  0  0  0  0  0  0  0  0  0  0
    2.2744   -3.5851    0.1387 H   0  0  0  0  0  0  0  0  0  0  0  0
    4.0028   -3.4091   -0.2794 H   0  0  0  0  0  0  0  0  0  0  0  0
    2.6923   -2.6064    2.3743 H   0  0  0  0  0  0  0  0  0  0  0  0
    3.7489   -4.0045    2.1203 H   0  0  0  0  0  0  0  0  0  0  0  0
    4.3956   -2.3603    1.9767 H   0  0  0  0  0  0  0  0  0  0  0  0
    0.0883   -0.0476    2.5564 H   0  0  0  0  0  0  0  0  0  0  0  0
   -1.5244   -0.6284    2.0072 H   0  0  0  0  0  0  0  0  0  0  0  0
   -2.1976    3.5841    0.1521 H   0  0  0  0  0  0  0  0  0  0  0  0
   -3.3801    3.9411   -1.1377 H   0  0  0  0  0  0  0  0  0  0  0  0
   -4.5378    3.6325    1.0373 H   0  0  0  0  0  0  0  0  0  0  0  0
   -4.9759    2.3209   -0.0701 H   0  0  0  0  0  0  0  0  0  0  0  0
   -3.8035    2.0332    1.2243 H   0  0  0  0  0  0  0  0  0  0  0  0
   -4.6435   -1.2543   -0.6944 H   0  0  0  0  0  0  0  0  0  0  0  0
   -3.0802   -1.6496   -1.4594 H   0  0  0  0  0  0  0  0  0  0  0  0
   -2.2528   -2.6009    0.6739 H   0  0  0  0  0  0  0  0  0  0  0  0
   -3.7540   -2.1209    1.4931 H   0  0  0  0  0  0  0  0  0  0  0  0
   -3.7846   -3.3649    0.2365 H   0  0  0  0  0  0  0  0  0  0  0  0
  1  2  1  0  0  0  0
  2  3  1  0  0  0  0
  3  4  2  0  0  0  0
  4  5  2  0  0  0  0
  4  6  2  0  0  0  0
  6  7  1  0  0  0  0
  7  8  1  0  0  0  0
  4  9  1  0  0  0  0
  9 10  1  0  0  0  0
 10 11  1  0  0  0  0
 11 12  1  0  0  0  0
 12 13  2  0  0  0  0
 12 14  2  0  0  0  0
 14 15  1  0  0  0  0
 15 16  1  0  0  0  0
 12 17  2  0  0  0  0
 17 18  1  0  0  0  0
 18 19  1  0  0  0  0
  1 20  1  0  0  0  0
  1 21  1  0  0  0  0
  1 22  1  0  0  0  0
  2 23  1  0  0  0  0
  2 24  1  0  0  0  0
  7 25  1  0  0  0  0
  7 26  1  0  0  0  0
  8 27  1  0  0  0  0
  8 28  1  0  0  0  0
  8 29  1  0  0  0  0
 10 30  1  0  0  0  0
 10 31  1  0  0  0  0
 15 32  1  0  0  0  0
 15 33  1  0  0  0  0
 16 34  1  0  0  0  0
 16 35  1  0  0  0  0
 16 36  1  0  0  0  0
 18 37  1  0  0  0  0
 18 38  1  0  0  0  0
 19 39  1  0  0  0  0
 19 40  1  0  0  0  0
 19 41  1  0  0  0  0
M  END
