 xtb: 6.7.1 (edcfbbe)
          04092507313D

 38 37  0     0  0            999 V2000
    4.0127   -0.2471   -2.4036 C   0  0  0  0  0  0  0  0  0  0  0  0
    3.6894   -1.7212   -2.2205 C   0  0  0  0  0  0  0  0  0  0  0  0
    2.4851   -1.8713   -1.4468 O   0  0  0  0  0  0  0  0  0  0  0  0
    2.5852   -2.1313   -0.1548 C   0  0  0  0  0  0  0  0  0  0  0  0
    3.6195   -2.3604    0.4285 O   0  0  0  0  0  0  0  0  0  0  0  0
    1.2156   -2.1919    0.5018 C   0  0  0  0  0  0  0  0  0  0  0  0
    0.4048   -0.9509    0.1501 C   0  0  0  0  0  0  0  0  0  0  0  0
    0.2605   -0.8912   -0.9370 H   0  0  0  0  0  0  0  0  0  0  0  0
    1.1392    0.3144    0.5540 C   0  0  0  0  0  0  0  0  0  0  0  0
    2.3410    0.4231    0.4730 O   0  0  0  0  0  0  0  0  0  0  0  0
    0.3183    1.2632    0.9497 O   0  0  0  0  0  0  0  0  0  0  0  0
    0.8648    2.5429    1.3289 C   0  0  0  0  0  0  0  0  0  0  0  0
    1.2123    2.5580    2.8077 C   0  0  0  0  0  0  0  0  0  0  0  0
   -1.2508   -1.0260    0.9081 S   0  0  0  0  0  0  0  0  0  0  0  0
   -2.1413    0.5882   -0.1612 P   0  0  0  0  0  0  0  0  0  0  0  0
   -1.2932    1.0966   -1.8516 S   0  0  0  0  0  0  0  0  0  0  0  0
   -3.6534    0.0799   -0.3149 O   0  0  0  0  0  0  0  0  0  0  0  0
   -3.9855   -1.0148   -1.1752 C   0  0  0  0  0  0  0  0  0  0  0  0
   -2.3625    1.8039    0.8210 O   0  0  0  0  0  0  0  0  0  0  0  0
   -3.0304    1.6502    2.0893 C   0  0  0  0  0  0  0  0  0  0  0  0
    4.1430    0.2234   -1.4312 H   0  0  0  0  0  0  0  0  0  0  0  0
    4.9270   -0.1442   -2.9782 H   0  0  0  0  0  0  0  0  0  0  0  0
    3.1998    0.2532   -2.9239 H   0  0  0  0  0  0  0  0  0  0  0  0
    4.5014   -2.2390   -1.7024 H   0  0  0  0  0  0  0  0  0  0  0  0
    3.4760   -2.2038   -3.1753 H   0  0  0  0  0  0  0  0  0  0  0  0
    1.3549   -2.2766    1.5796 H   0  0  0  0  0  0  0  0  0  0  0  0
    0.6963   -3.0789    0.1364 H   0  0  0  0  0  0  0  0  0  0  0  0
    1.7477    2.7343    0.7131 H   0  0  0  0  0  0  0  0  0  0  0  0
    0.0741    3.2549    1.0892 H   0  0  0  0  0  0  0  0  0  0  0  0
    1.5582    3.5493    3.0804 H   0  0  0  0  0  0  0  0  0  0  0  0
    0.3389    2.3063    3.4030 H   0  0  0  0  0  0  0  0  0  0  0  0
    2.0028    1.8394    3.0130 H   0  0  0  0  0  0  0  0  0  0  0  0
   -3.5383   -0.8682   -2.1596 H   0  0  0  0  0  0  0  0  0  0  0  0
   -5.0701   -1.0122   -1.2476 H   0  0  0  0  0  0  0  0  0  0  0  0
   -3.6317   -1.9491   -0.7395 H   0  0  0  0  0  0  0  0  0  0  0  0
   -2.5479    0.8649    2.6713 H   0  0  0  0  0  0  0  0  0  0  0  0
   -4.0780    1.4039    1.9287 H   0  0  0  0  0  0  0  0  0  0  0  0
   -2.9316    2.6139    2.5822 H   0  0  0  0  0  0  0  0  0  0  0  0
  1  2  1  0  0  0  0
  2  3  1  0  0  0  0
  3  4  1  0  0  0  0
  4  5  2  0  0  0  0
  4  6  1  0  0  0  0
  6  7  1  0  0  0  0
  7  8  1  0  0  0  0
  7  9  1  0  0  0  0
  9 10  2  0  0  0  0
  9 11  1  0  0  0  0
 11 12  1  0  0  0  0
 12 13  1  0  0  0  0
  7 14  1  0  0  0  0
 14 15  1  0  0  0  0
 15 16  2  0  0  0  0
 15 17  1  0  0  0  0
 17 18  1  0  0  0  0
 15 19  2  0  0  0  0
 19 20  1  0  0  0  0
  1 21  1  0  0  0  0
  1 22  1  0  0  0  0
  1 23  1  0  0  0  0
  2 24  1  0  0  0  0
  2 25  1  0  0  0  0
  6 26  1  0  0  0  0
  6 27  1  0  0  0  0
 12 28  1  0  0  0  0
 12 29  1  0  0  0  0
 13 30  1  0  0  0  0
 13 31  1  0  0  0  0
 13 32  1  0  0  0  0
 18 33  1  0  0  0  0
 18 34  1  0  0  0  0
 18 35  1  0  0  0  0
 20 36  1  0  0  0  0
 20 37  1  0  0  0  0
 20 38  1  0  0  0  0
M  END
