 xtb: 6.7.1 (edcfbbe)
          04032519393D

  8  7  0     0  0            999 V2000
   -0.6120   -0.4417    1.2924 C   0  0  0  0  0  0  0  0  0  0  0  0
    0.6123    0.4407    1.2929 C   0  0  0  0  0  0  0  0  0  0  0  0
    1.7891    0.0527   -0.2373 Br  0  0  0  0  0  0  0  0  0  0  0  0
   -1.7892   -0.0525   -0.2372 Br  0  0  0  0  0  0  0  0  0  0  0  0
   -1.2068   -0.2628    2.1880 H   0  0  0  0  0  0  0  0  0  0  0  0
   -0.3540   -1.4974    1.2157 H   0  0  0  0  0  0  0  0  0  0  0  0
    0.3544    1.4965    1.2174 H   0  0  0  0  0  0  0  0  0  0  0  0
    1.2072    0.2609    2.1883 H   0  0  0  0  0  0  0  0  0  0  0  0
  1  2  1  0  0  0  0
  2  3  1  0  0  0  0
  1  4  1  0  0  0  0
  1  5  1  0  0  0  0
  1  6  1  0  0  0  0
  2  7  1  0  0  0  0
  2  8  1  0  0  0  0
M  END
