 xtb: 6.7.1 (edcfbbe)
          04092505213D

 41 40  0     0  0            999 V2000
    2.6110    1.1579   -2.3372 C   0  0  0  0  0  0  0  0  0  0  0  0
    1.9669   -0.1992   -2.1358 C   0  0  0  0  0  0  0  0  0  0  0  0
    2.5716   -0.9189   -1.0497 O   0  0  0  0  0  0  0  0  0  0  0  0
    2.2116   -0.7478    0.4909 P   0  0  0  0  0  0  0  0  0  0  0  0
    2.5267    0.9930    1.3476 S   0  0  0  0  0  0  0  0  0  0  0  0
    3.0579   -1.9319    1.1130 O   0  0  0  0  0  0  0  0  0  0  0  0
    4.3896   -1.7367    1.6285 C   0  0  0  0  0  0  0  0  0  0  0  0
    5.3796   -1.4497    0.5197 C   0  0  0  0  0  0  0  0  0  0  0  0
    0.2864   -1.5892    0.6509 S   0  0  0  0  0  0  0  0  0  0  0  0
   -0.4661   -0.4413    1.8618 C   0  0  0  0  0  0  0  0  0  0  0  0
   -2.2025   -0.1556    1.4921 S   0  0  0  0  0  0  0  0  0  0  0  0
   -1.9495    0.7415   -0.4306 P   0  0  0  0  0  0  0  0  0  0  0  0
   -0.4880    2.0439   -0.5077 S   0  0  0  0  0  0  0  0  0  0  0  0
   -3.4006    1.3008   -0.7408 O   0  0  0  0  0  0  0  0  0  0  0  0
   -3.9441    2.4163   -0.0034 C   0  0  0  0  0  0  0  0  0  0  0  0
   -5.1886    2.8859   -0.7287 C   0  0  0  0  0  0  0  0  0  0  0  0
   -1.7723   -0.3707   -1.5301 O   0  0  0  0  0  0  0  0  0  0  0  0
   -2.8060   -1.2546   -2.0362 C   0  0  0  0  0  0  0  0  0  0  0  0
   -3.2861   -2.2416   -0.9933 C   0  0  0  0  0  0  0  0  0  0  0  0
    2.1883    1.6252   -3.2208 H   0  0  0  0  0  0  0  0  0  0  0  0
    2.4145    1.8009   -1.4810 H   0  0  0  0  0  0  0  0  0  0  0  0
    3.6852    1.0509   -2.4614 H   0  0  0  0  0  0  0  0  0  0  0  0
    2.1254   -0.8464   -3.0006 H   0  0  0  0  0  0  0  0  0  0  0  0
    0.8926   -0.0940   -1.9522 H   0  0  0  0  0  0  0  0  0  0  0  0
    4.3650   -0.9113    2.3474 H   0  0  0  0  0  0  0  0  0  0  0  0
    4.6108   -2.6732    2.1417 H   0  0  0  0  0  0  0  0  0  0  0  0
    6.3814   -1.3925    0.9338 H   0  0  0  0  0  0  0  0  0  0  0  0
    5.3394   -2.2333   -0.2322 H   0  0  0  0  0  0  0  0  0  0  0  0
    5.1344   -0.4982    0.0490 H   0  0  0  0  0  0  0  0  0  0  0  0
    0.0853    0.5036    1.8307 H   0  0  0  0  0  0  0  0  0  0  0  0
   -0.4311   -0.8873    2.8525 H   0  0  0  0  0  0  0  0  0  0  0  0
   -4.1740    2.0762    1.0097 H   0  0  0  0  0  0  0  0  0  0  0  0
   -3.1846    3.2032    0.0466 H   0  0  0  0  0  0  0  0  0  0  0  0
   -5.6185    3.7236   -0.1896 H   0  0  0  0  0  0  0  0  0  0  0  0
   -4.9369    3.2007   -1.7376 H   0  0  0  0  0  0  0  0  0  0  0  0
   -5.9152    2.0806   -0.7800 H   0  0  0  0  0  0  0  0  0  0  0  0
   -3.6270   -0.6409   -2.4097 H   0  0  0  0  0  0  0  0  0  0  0  0
   -2.3085   -1.7600   -2.8652 H   0  0  0  0  0  0  0  0  0  0  0  0
   -3.8522   -1.7342   -0.2157 H   0  0  0  0  0  0  0  0  0  0  0  0
   -3.9249   -2.9766   -1.4730 H   0  0  0  0  0  0  0  0  0  0  0  0
   -2.4378   -2.7477   -0.5372 H   0  0  0  0  0  0  0  0  0  0  0  0
  1  2  1  0  0  0  0
  2  3  1  0  0  0  0
  3  4  2  0  0  0  0
  4  5  2  0  0  0  0
  4  6  2  0  0  0  0
  6  7  1  0  0  0  0
  7  8  1  0  0  0  0
  4  9  1  0  0  0  0
  9 10  1  0  0  0  0
 10 11  1  0  0  0  0
 11 12  1  0  0  0  0
 12 13  2  0  0  0  0
 12 14  2  0  0  0  0
 14 15  1  0  0  0  0
 15 16  1  0  0  0  0
 12 17  2  0  0  0  0
 17 18  1  0  0  0  0
 18 19  1  0  0  0  0
  1 20  1  0  0  0  0
  1 21  1  0  0  0  0
  1 22  1  0  0  0  0
  2 23  1  0  0  0  0
  2 24  1  0  0  0  0
  7 25  1  0  0  0  0
  7 26  1  0  0  0  0
  8 27  1  0  0  0  0
  8 28  1  0  0  0  0
  8 29  1  0  0  0  0
 10 30  1  0  0  0  0
 10 31  1  0  0  0  0
 15 32  1  0  0  0  0
 15 33  1  0  0  0  0
 16 34  1  0  0  0  0
 16 35  1  0  0  0  0
 16 36  1  0  0  0  0
 18 37  1  0  0  0  0
 18 38  1  0  0  0  0
 19 39  1  0  0  0  0
 19 40  1  0  0  0  0
 19 41  1  0  0  0  0
M  END
