 xtb: 6.7.1 (edcfbbe)
          04092507313D

 38 37  0     0  0            999 V2000
    5.3099   -1.9013   -1.2787 C   0  0  0  0  0  0  0  0  0  0  0  0
    4.5404   -0.6114   -1.0426 C   0  0  0  0  0  0  0  0  0  0  0  0
    3.1228   -0.8246   -1.1794 O   0  0  0  0  0  0  0  0  0  0  0  0
    2.4418   -1.2103   -0.1176 C   0  0  0  0  0  0  0  0  0  0  0  0
    2.9207   -1.4031    0.9762 O   0  0  0  0  0  0  0  0  0  0  0  0
    0.9680   -1.3885   -0.4411 C   0  0  0  0  0  0  0  0  0  0  0  0
    0.3887   -0.0958   -1.0193 C   0  0  0  0  0  0  0  0  0  0  0  0
    0.9238    0.1697   -1.9351 H   0  0  0  0  0  0  0  0  0  0  0  0
    0.4977    1.0468   -0.0283 C   0  0  0  0  0  0  0  0  0  0  0  0
   -0.4745    1.6192    0.4241 O   0  0  0  0  0  0  0  0  0  0  0  0
    1.7396    1.3187    0.2591 O   0  0  0  0  0  0  0  0  0  0  0  0
    2.0384    2.3524    1.2259 C   0  0  0  0  0  0  0  0  0  0  0  0
    3.1945    3.1850    0.7048 C   0  0  0  0  0  0  0  0  0  0  0  0
   -1.3536   -0.2772   -1.5059 S   0  0  0  0  0  0  0  0  0  0  0  0
   -2.4059   -0.0500    0.3340 P   0  0  0  0  0  0  0  0  0  0  0  0
   -1.6028   -0.6533    2.0193 S   0  0  0  0  0  0  0  0  0  0  0  0
   -3.1135    1.3616    0.3999 O   0  0  0  0  0  0  0  0  0  0  0  0
   -3.9049    1.8809   -0.6862 C   0  0  0  0  0  0  0  0  0  0  0  0
   -3.6976   -0.9381   -0.0414 O   0  0  0  0  0  0  0  0  0  0  0  0
   -3.6310   -2.3629   -0.1255 C   0  0  0  0  0  0  0  0  0  0  0  0
    5.0604   -2.3131   -2.2525 H   0  0  0  0  0  0  0  0  0  0  0  0
    6.3746   -1.6970   -1.2381 H   0  0  0  0  0  0  0  0  0  0  0  0
    5.0613   -2.6302   -0.5106 H   0  0  0  0  0  0  0  0  0  0  0  0
    4.7784    0.1374   -1.7982 H   0  0  0  0  0  0  0  0  0  0  0  0
    4.7373   -0.2217   -0.0400 H   0  0  0  0  0  0  0  0  0  0  0  0
    0.4467   -1.6738    0.4755 H   0  0  0  0  0  0  0  0  0  0  0  0
    0.8639   -2.1812   -1.1832 H   0  0  0  0  0  0  0  0  0  0  0  0
    1.1368    2.9501    1.3845 H   0  0  0  0  0  0  0  0  0  0  0  0
    2.3000    1.8391    2.1552 H   0  0  0  0  0  0  0  0  0  0  0  0
    4.0627    2.5539    0.5399 H   0  0  0  0  0  0  0  0  0  0  0  0
    2.9239    3.6671   -0.2302 H   0  0  0  0  0  0  0  0  0  0  0  0
    3.4404    3.9446    1.4393 H   0  0  0  0  0  0  0  0  0  0  0  0
   -4.1822    2.8849   -0.3758 H   0  0  0  0  0  0  0  0  0  0  0  0
   -4.7869    1.2596   -0.8318 H   0  0  0  0  0  0  0  0  0  0  0  0
   -3.3118    1.9104   -1.6004 H   0  0  0  0  0  0  0  0  0  0  0  0
   -4.6624   -2.7061   -0.1286 H   0  0  0  0  0  0  0  0  0  0  0  0
   -3.0997   -2.7644    0.7394 H   0  0  0  0  0  0  0  0  0  0  0  0
   -3.1252   -2.6562   -1.0452 H   0  0  0  0  0  0  0  0  0  0  0  0
  1  2  1  0  0  0  0
  2  3  1  0  0  0  0
  3  4  1  0  0  0  0
  4  5  2  0  0  0  0
  4  6  1  0  0  0  0
  6  7  1  0  0  0  0
  7  8  1  0  0  0  0
  7  9  1  0  0  0  0
  9 10  2  0  0  0  0
  9 11  4  0  0  0  0
 11 12  1  0  0  0  0
 12 13  1  0  0  0  0
  7 14  1  0  0  0  0
 14 15  1  0  0  0  0
 15 16  2  0  0  0  0
 15 17  2  0  0  0  0
 17 18  1  0  0  0  0
 15 19  1  0  0  0  0
 19 20  1  0  0  0  0
  1 21  1  0  0  0  0
  1 22  1  0  0  0  0
  1 23  1  0  0  0  0
  2 24  1  0  0  0  0
  2 25  1  0  0  0  0
  6 26  1  0  0  0  0
  6 27  1  0  0  0  0
 12 28  1  0  0  0  0
 12 29  1  0  0  0  0
 13 30  1  0  0  0  0
 13 31  1  0  0  0  0
 13 32  1  0  0  0  0
 18 33  1  0  0  0  0
 18 34  1  0  0  0  0
 18 35  1  0  0  0  0
 20 36  1  0  0  0  0
 20 37  1  0  0  0  0
 20 38  1  0  0  0  0
M  END
