 xtb: 6.7.1 (edcfbbe)
          04092505213D

 41 40  0     0  0            999 V2000
    5.0032   -0.5219   -2.6278 C   0  0  0  0  0  0  0  0  0  0  0  0
    3.5212   -0.8283   -2.5287 C   0  0  0  0  0  0  0  0  0  0  0  0
    3.1533   -0.8747   -1.1396 O   0  0  0  0  0  0  0  0  0  0  0  0
    1.8219   -0.2384   -0.5336 P   0  0  0  0  0  0  0  0  0  0  0  0
    1.3283    1.4046   -1.4936 S   0  0  0  0  0  0  0  0  0  0  0  0
    2.1921   -0.1258    0.9982 O   0  0  0  0  0  0  0  0  0  0  0  0
    2.9560    0.9944    1.5005 C   0  0  0  0  0  0  0  0  0  0  0  0
    2.7766    1.0435    3.0026 C   0  0  0  0  0  0  0  0  0  0  0  0
    0.5757   -1.9456   -0.4734 S   0  0  0  0  0  0  0  0  0  0  0  0
   -0.2900   -1.8594    1.1337 C   0  0  0  0  0  0  0  0  0  0  0  0
   -2.0652   -1.5564    0.9817 S   0  0  0  0  0  0  0  0  0  0  0  0
   -1.9115    0.4982    0.4637 P   0  0  0  0  0  0  0  0  0  0  0  0
   -0.6174    1.5215    1.5101 S   0  0  0  0  0  0  0  0  0  0  0  0
   -3.4082    1.0278    0.5187 O   0  0  0  0  0  0  0  0  0  0  0  0
   -4.0254    1.5195    1.7238 C   0  0  0  0  0  0  0  0  0  0  0  0
   -4.2010    0.4360    2.7675 C   0  0  0  0  0  0  0  0  0  0  0  0
   -1.6250    0.5080   -1.0858 O   0  0  0  0  0  0  0  0  0  0  0  0
   -2.5410   -0.0735   -2.0521 C   0  0  0  0  0  0  0  0  0  0  0  0
   -1.7270   -0.6488   -3.1920 C   0  0  0  0  0  0  0  0  0  0  0  0
    5.3020   -0.5484   -3.6705 H   0  0  0  0  0  0  0  0  0  0  0  0
    5.2088    0.4655   -2.2225 H   0  0  0  0  0  0  0  0  0  0  0  0
    5.5726   -1.2596   -2.0697 H   0  0  0  0  0  0  0  0  0  0  0  0
    3.2860   -1.8047   -2.9583 H   0  0  0  0  0  0  0  0  0  0  0  0
    2.9246   -0.0551   -3.0250 H   0  0  0  0  0  0  0  0  0  0  0  0
    4.0002    0.8369    1.2206 H   0  0  0  0  0  0  0  0  0  0  0  0
    2.5867    1.9087    1.0232 H   0  0  0  0  0  0  0  0  0  0  0  0
    3.0811    0.0992    3.4443 H   0  0  0  0  0  0  0  0  0  0  0  0
    3.3857    1.8460    3.4051 H   0  0  0  0  0  0  0  0  0  0  0  0
    1.7332    1.2334    3.2431 H   0  0  0  0  0  0  0  0  0  0  0  0
    0.1634   -1.0754    1.7392 H   0  0  0  0  0  0  0  0  0  0  0  0
   -0.1829   -2.8364    1.5966 H   0  0  0  0  0  0  0  0  0  0  0  0
   -3.4123    2.3371    2.1150 H   0  0  0  0  0  0  0  0  0  0  0  0
   -4.9848    1.9078    1.3787 H   0  0  0  0  0  0  0  0  0  0  0  0
   -4.7042   -0.4265    2.3379 H   0  0  0  0  0  0  0  0  0  0  0  0
   -3.2304    0.1237    3.1491 H   0  0  0  0  0  0  0  0  0  0  0  0
   -4.7922    0.8270    3.5893 H   0  0  0  0  0  0  0  0  0  0  0  0
   -3.1370   -0.8439   -1.5538 H   0  0  0  0  0  0  0  0  0  0  0  0
   -3.1948    0.7320   -2.3904 H   0  0  0  0  0  0  0  0  0  0  0  0
   -2.3994   -0.9926   -3.9711 H   0  0  0  0  0  0  0  0  0  0  0  0
   -1.0671    0.1162   -3.5939 H   0  0  0  0  0  0  0  0  0  0  0  0
   -1.1216   -1.4829   -2.8444 H   0  0  0  0  0  0  0  0  0  0  0  0
  1  2  1  0  0  0  0
  2  3  1  0  0  0  0
  3  4  2  0  0  0  0
  4  5  2  0  0  0  0
  4  6  2  0  0  0  0
  6  7  1  0  0  0  0
  7  8  1  0  0  0  0
  4  9  1  0  0  0  0
  9 10  1  0  0  0  0
 10 11  1  0  0  0  0
 11 12  1  0  0  0  0
 12 13  2  0  0  0  0
 12 14  2  0  0  0  0
 14 15  1  0  0  0  0
 15 16  1  0  0  0  0
 12 17  2  0  0  0  0
 17 18  1  0  0  0  0
 18 19  1  0  0  0  0
  1 20  1  0  0  0  0
  1 21  1  0  0  0  0
  1 22  1  0  0  0  0
  2 23  1  0  0  0  0
  2 24  1  0  0  0  0
  7 25  1  0  0  0  0
  7 26  1  0  0  0  0
  8 27  1  0  0  0  0
  8 28  1  0  0  0  0
  8 29  1  0  0  0  0
 10 30  1  0  0  0  0
 10 31  1  0  0  0  0
 15 32  1  0  0  0  0
 15 33  1  0  0  0  0
 16 34  1  0  0  0  0
 16 35  1  0  0  0  0
 16 36  1  0  0  0  0
 18 37  1  0  0  0  0
 18 38  1  0  0  0  0
 19 39  1  0  0  0  0
 19 40  1  0  0  0  0
 19 41  1  0  0  0  0
M  END
