 xtb: 6.7.1 (edcfbbe)
          04032520213D

 20 21  0     0  0            999 V2000
   -2.9100   -0.3701   -0.0046 C   0  0  0  0  0  0  0  0  0  0  0  0
   -2.6711    1.0132   -0.0014 C   0  0  0  0  0  0  0  0  0  0  0  0
   -1.3926    1.4956    0.0024 C   0  0  0  0  0  0  0  0  0  0  0  0
   -0.2862    0.6177    0.0026 C   0  0  0  0  0  0  0  0  0  0  0  0
    1.0378    1.0859    0.0105 C   0  0  0  0  0  0  0  0  0  0  0  0
    2.1083    0.2139    0.0108 C   0  0  0  0  0  0  0  0  0  0  0  0
    1.8518   -1.1792    0.0074 C   0  0  0  0  0  0  0  0  0  0  0  0
    0.5760   -1.6572    0.0022 C   0  0  0  0  0  0  0  0  0  0  0  0
   -0.5315   -0.7819   -0.0002 C   0  0  0  0  0  0  0  0  0  0  0  0
   -1.8603   -1.2471   -0.0037 C   0  0  0  0  0  0  0  0  0  0  0  0
    3.4033    0.6636   -0.0532 N   0  0  0  0  0  0  0  0  0  0  0  0
   -3.9271   -0.7336   -0.0081 H   0  0  0  0  0  0  0  0  0  0  0  0
   -3.5099    1.6944   -0.0020 H   0  0  0  0  0  0  0  0  0  0  0  0
   -1.2086    2.5608    0.0046 H   0  0  0  0  0  0  0  0  0  0  0  0
    1.2130    2.1527    0.0135 H   0  0  0  0  0  0  0  0  0  0  0  0
    2.6910   -1.8599    0.0079 H   0  0  0  0  0  0  0  0  0  0  0  0
    0.3938   -2.7226    0.0019 H   0  0  0  0  0  0  0  0  0  0  0  0
   -2.0362   -2.3139   -0.0063 H   0  0  0  0  0  0  0  0  0  0  0  0
    4.1226    0.0184    0.2262 H   0  0  0  0  0  0  0  0  0  0  0  0
    3.5606    1.6264    0.1918 H   0  0  0  0  0  0  0  0  0  0  0  0
  1  2  4  0  0  0  0
  2  3  2  0  0  0  0
  3  4  4  0  0  0  0
  4  5  4  0  0  0  0
  5  6  4  0  0  0  0
  6  7  4  0  0  0  0
  7  8  2  0  0  0  0
  4  9  4  0  0  0  0
  8  9  4  0  0  0  0
  1 10  2  0  0  0  0
  9 10  4  0  0  0  0
  6 11  1  0  0  0  0
  1 12  1  0  0  0  0
  2 13  1  0  0  0  0
  3 14  1  0  0  0  0
  5 15  1  0  0  0  0
  7 16  1  0  0  0  0
  8 17  1  0  0  0  0
 10 18  1  0  0  0  0
 11 19  1  0  0  0  0
 11 20  1  0  0  0  0
M  END
