 xtb: 6.7.1 (edcfbbe)
          04092507313D

 38 37  0     0  0            999 V2000
    5.2995   -1.0786   -2.2313 C   0  0  0  0  0  0  0  0  0  0  0  0
    4.3428   -0.1678   -1.4783 C   0  0  0  0  0  0  0  0  0  0  0  0
    2.9879   -0.6457   -1.5788 O   0  0  0  0  0  0  0  0  0  0  0  0
    2.5711   -1.5414   -0.7092 C   0  0  0  0  0  0  0  0  0  0  0  0
    3.2447   -2.0133    0.1791 O   0  0  0  0  0  0  0  0  0  0  0  0
    1.1129   -1.8996   -0.9458 C   0  0  0  0  0  0  0  0  0  0  0  0
    0.2437   -0.6787   -0.6355 C   0  0  0  0  0  0  0  0  0  0  0  0
    0.4865    0.1442   -1.3119 H   0  0  0  0  0  0  0  0  0  0  0  0
    0.4748   -0.2397    0.7997 C   0  0  0  0  0  0  0  0  0  0  0  0
   -0.2972   -0.4947    1.7016 O   0  0  0  0  0  0  0  0  0  0  0  0
    1.6165    0.3834    0.9176 O   0  0  0  0  0  0  0  0  0  0  0  0
    2.0166    0.8937    2.2078 C   0  0  0  0  0  0  0  0  0  0  0  0
    2.2142    2.3955    2.1063 C   0  0  0  0  0  0  0  0  0  0  0  0
   -1.5169   -1.1115   -0.8237 S   0  0  0  0  0  0  0  0  0  0  0  0
   -2.3479    0.5877    0.1385 P   0  0  0  0  0  0  0  0  0  0  0  0
   -1.2402    2.1995    0.1620 S   0  0  0  0  0  0  0  0  0  0  0  0
   -3.7191    0.7592   -0.6739 O   0  0  0  0  0  0  0  0  0  0  0  0
   -3.7262    1.1721   -2.0453 C   0  0  0  0  0  0  0  0  0  0  0  0
   -2.9302    0.2133    1.5549 O   0  0  0  0  0  0  0  0  0  0  0  0
   -3.6802   -0.9935    1.7975 C   0  0  0  0  0  0  0  0  0  0  0  0
    4.9880   -1.1734   -3.2677 H   0  0  0  0  0  0  0  0  0  0  0  0
    6.2986   -0.6572   -2.1949 H   0  0  0  0  0  0  0  0  0  0  0  0
    5.3154   -2.0648   -1.7731 H   0  0  0  0  0  0  0  0  0  0  0  0
    4.3124    0.8293   -1.9176 H   0  0  0  0  0  0  0  0  0  0  0  0
    4.6128   -0.1102   -0.4203 H   0  0  0  0  0  0  0  0  0  0  0  0
    0.8423   -2.7316   -0.2949 H   0  0  0  0  0  0  0  0  0  0  0  0
    0.9694   -2.1817   -1.9887 H   0  0  0  0  0  0  0  0  0  0  0  0
    1.2426    0.6369    2.9359 H   0  0  0  0  0  0  0  0  0  0  0  0
    2.9470    0.3778    2.4569 H   0  0  0  0  0  0  0  0  0  0  0  0
    2.9790    2.6245    1.3706 H   0  0  0  0  0  0  0  0  0  0  0  0
    1.2844    2.8725    1.8028 H   0  0  0  0  0  0  0  0  0  0  0  0
    2.5152    2.7820    3.0741 H   0  0  0  0  0  0  0  0  0  0  0  0
   -3.3643    0.3617   -2.6776 H   0  0  0  0  0  0  0  0  0  0  0  0
   -3.0991    2.0558   -2.1729 H   0  0  0  0  0  0  0  0  0  0  0  0
   -4.7627    1.4057   -2.2740 H   0  0  0  0  0  0  0  0  0  0  0  0
   -4.4779   -1.0950    1.0639 H   0  0  0  0  0  0  0  0  0  0  0  0
   -4.0847   -0.8765    2.7993 H   0  0  0  0  0  0  0  0  0  0  0  0
   -3.0080   -1.8500    1.7545 H   0  0  0  0  0  0  0  0  0  0  0  0
  1  2  1  0  0  0  0
  2  3  1  0  0  0  0
  3  4  1  0  0  0  0
  4  5  2  0  0  0  0
  4  6  1  0  0  0  0
  6  7  1  0  0  0  0
  7  8  1  0  0  0  0
  7  9  1  0  0  0  0
  9 10  2  0  0  0  0
  9 11  4  0  0  0  0
 11 12  1  0  0  0  0
 12 13  1  0  0  0  0
  7 14  1  0  0  0  0
 14 15  1  0  0  0  0
 15 16  2  0  0  0  0
 15 17  1  0  0  0  0
 17 18  1  0  0  0  0
 15 19  2  0  0  0  0
 19 20  1  0  0  0  0
  1 21  1  0  0  0  0
  1 22  1  0  0  0  0
  1 23  1  0  0  0  0
  2 24  1  0  0  0  0
  2 25  1  0  0  0  0
  6 26  1  0  0  0  0
  6 27  1  0  0  0  0
 12 28  1  0  0  0  0
 12 29  1  0  0  0  0
 13 30  1  0  0  0  0
 13 31  1  0  0  0  0
 13 32  1  0  0  0  0
 18 33  1  0  0  0  0
 18 34  1  0  0  0  0
 18 35  1  0  0  0  0
 20 36  1  0  0  0  0
 20 37  1  0  0  0  0
 20 38  1  0  0  0  0
M  END
