 xtb: 6.7.1 (edcfbbe)
          04092505203D

 41 40  0     0  0            999 V2000
    4.4777   -1.6287   -0.9038 C   0  0  0  0  0  0  0  0  0  0  0  0
    4.6082   -0.2055   -0.4004 C   0  0  0  0  0  0  0  0  0  0  0  0
    3.5040    0.1850    0.4323 O   0  0  0  0  0  0  0  0  0  0  0  0
    2.0235    0.3565   -0.1286 P   0  0  0  0  0  0  0  0  0  0  0  0
    1.9320    1.1242   -1.9337 S   0  0  0  0  0  0  0  0  0  0  0  0
    1.3610    1.1718    1.0584 O   0  0  0  0  0  0  0  0  0  0  0  0
    1.3498    2.6143    1.0677 C   0  0  0  0  0  0  0  0  0  0  0  0
    2.7421    3.1991    1.1689 C   0  0  0  0  0  0  0  0  0  0  0  0
    1.1719   -1.5512    0.1713 S   0  0  0  0  0  0  0  0  0  0  0  0
    0.1113   -1.6707   -1.3121 C   0  0  0  0  0  0  0  0  0  0  0  0
   -1.5971   -2.1106   -0.9179 S   0  0  0  0  0  0  0  0  0  0  0  0
   -2.1126   -0.3964    0.1930 P   0  0  0  0  0  0  0  0  0  0  0  0
   -1.4612    1.3169   -0.5269 S   0  0  0  0  0  0  0  0  0  0  0  0
   -1.6138   -0.8589    1.6227 O   0  0  0  0  0  0  0  0  0  0  0  0
   -2.0827   -0.3291    2.8812 C   0  0  0  0  0  0  0  0  0  0  0  0
   -1.4994    1.0393    3.1671 C   0  0  0  0  0  0  0  0  0  0  0  0
   -3.6896   -0.4567    0.3715 O   0  0  0  0  0  0  0  0  0  0  0  0
   -4.5951    0.1429   -0.5717 C   0  0  0  0  0  0  0  0  0  0  0  0
   -4.6091   -0.5985   -1.8923 C   0  0  0  0  0  0  0  0  0  0  0  0
    3.6454   -1.6992   -1.6029 H   0  0  0  0  0  0  0  0  0  0  0  0
    5.3917   -1.9127   -1.4154 H   0  0  0  0  0  0  0  0  0  0  0  0
    4.2991   -2.3088   -0.0748 H   0  0  0  0  0  0  0  0  0  0  0  0
    4.6682    0.4925   -1.2418 H   0  0  0  0  0  0  0  0  0  0  0  0
    5.4781   -0.0848    0.2466 H   0  0  0  0  0  0  0  0  0  0  0  0
    0.8426    2.9584    0.1598 H   0  0  0  0  0  0  0  0  0  0  0  0
    0.7408    2.8665    1.9369 H   0  0  0  0  0  0  0  0  0  0  0  0
    2.6687    4.2757    1.2870 H   0  0  0  0  0  0  0  0  0  0  0  0
    3.2665    2.7730    2.0204 H   0  0  0  0  0  0  0  0  0  0  0  0
    3.3041    2.9809    0.2615 H   0  0  0  0  0  0  0  0  0  0  0  0
    0.4844   -2.4765   -1.9390 H   0  0  0  0  0  0  0  0  0  0  0  0
    0.1431   -0.7140   -1.8412 H   0  0  0  0  0  0  0  0  0  0  0  0
   -3.1744   -0.3004    2.8622 H   0  0  0  0  0  0  0  0  0  0  0  0
   -1.7420   -1.0677    3.6088 H   0  0  0  0  0  0  0  0  0  0  0  0
   -1.8137    1.3685    4.1525 H   0  0  0  0  0  0  0  0  0  0  0  0
   -0.4133    0.9911    3.1299 H   0  0  0  0  0  0  0  0  0  0  0  0
   -1.8417    1.7576    2.4233 H   0  0  0  0  0  0  0  0  0  0  0  0
   -5.5631    0.0956   -0.0712 H   0  0  0  0  0  0  0  0  0  0  0  0
   -4.3000    1.1869   -0.7188 H   0  0  0  0  0  0  0  0  0  0  0  0
   -4.7852   -1.6585   -1.7286 H   0  0  0  0  0  0  0  0  0  0  0  0
   -5.3935   -0.1935   -2.5235 H   0  0  0  0  0  0  0  0  0  0  0  0
   -3.6518   -0.4772   -2.3974 H   0  0  0  0  0  0  0  0  0  0  0  0
  1  2  1  0  0  0  0
  2  3  1  0  0  0  0
  3  4  2  0  0  0  0
  4  5  2  0  0  0  0
  4  6  2  0  0  0  0
  6  7  1  0  0  0  0
  7  8  1  0  0  0  0
  4  9  1  0  0  0  0
  9 10  1  0  0  0  0
 10 11  1  0  0  0  0
 11 12  1  0  0  0  0
 12 13  2  0  0  0  0
 12 14  2  0  0  0  0
 14 15  1  0  0  0  0
 15 16  1  0  0  0  0
 12 17  2  0  0  0  0
 17 18  1  0  0  0  0
 18 19  1  0  0  0  0
  1 20  1  0  0  0  0
  1 21  1  0  0  0  0
  1 22  1  0  0  0  0
  2 23  1  0  0  0  0
  2 24  1  0  0  0  0
  7 25  1  0  0  0  0
  7 26  1  0  0  0  0
  8 27  1  0  0  0  0
  8 28  1  0  0  0  0
  8 29  1  0  0  0  0
 10 30  1  0  0  0  0
 10 31  1  0  0  0  0
 15 32  1  0  0  0  0
 15 33  1  0  0  0  0
 16 34  1  0  0  0  0
 16 35  1  0  0  0  0
 16 36  1  0  0  0  0
 18 37  1  0  0  0  0
 18 38  1  0  0  0  0
 19 39  1  0  0  0  0
 19 40  1  0  0  0  0
 19 41  1  0  0  0  0
M  END
