 xtb: 6.7.1 (edcfbbe)
          04032520173D

 27 27  0     0  0            999 V2000
    3.0022   -1.8738   -0.1966 C   0  0  0  0  0  0  0  0  0  0  0  0
    1.7113   -1.1503   -0.1241 C   0  0  0  0  0  0  0  0  0  0  0  0
    1.5437    0.1757    0.0848 C   0  0  0  0  0  0  0  0  0  0  0  0
    0.2389    0.8149    0.1440 C   0  0  0  0  0  0  0  0  0  0  0  0
    0.1550    2.0184    0.3408 O   0  0  0  0  0  0  0  0  0  0  0  0
   -0.8635   -0.0225   -0.0347 N   0  0  0  0  0  0  0  0  0  0  0  0
   -0.7079   -1.3831   -0.2444 C   0  0  0  0  0  0  0  0  0  0  0  0
   -1.6253   -2.1716   -0.3995 O   0  0  0  0  0  0  0  0  0  0  0  0
    0.5702   -1.8741   -0.2797 N   0  0  0  0  0  0  0  0  0  0  0  0
   -2.2888    0.4700   -0.0120 C   0  0  0  0  0  0  0  0  0  0  0  0
   -2.4292    1.9758    0.2148 C   0  0  0  0  0  0  0  0  0  0  0  0
   -2.9258    0.1563   -1.3710 C   0  0  0  0  0  0  0  0  0  0  0  0
   -3.0208   -0.2323    1.1375 C   0  0  0  0  0  0  0  0  0  0  0  0
    2.8788    1.2562    0.3069 Cl  0  0  0  0  0  0  0  0  0  0  0  0
    3.0987   -2.3619   -1.1637 H   0  0  0  0  0  0  0  0  0  0  0  0
    3.0414   -2.6382    0.5759 H   0  0  0  0  0  0  0  0  0  0  0  0
    3.8245   -1.1806   -0.0592 H   0  0  0  0  0  0  0  0  0  0  0  0
    0.6317   -2.8758   -0.4371 H   0  0  0  0  0  0  0  0  0  0  0  0
   -3.4908    2.2096    0.2059 H   0  0  0  0  0  0  0  0  0  0  0  0
   -2.0179    2.2824    1.1716 H   0  0  0  0  0  0  0  0  0  0  0  0
   -1.9441    2.5510   -0.5678 H   0  0  0  0  0  0  0  0  0  0  0  0
   -3.9367    0.5509   -1.3876 H   0  0  0  0  0  0  0  0  0  0  0  0
   -2.9707   -0.9120   -1.5534 H   0  0  0  0  0  0  0  0  0  0  0  0
   -2.3545    0.6307   -2.1661 H   0  0  0  0  0  0  0  0  0  0  0  0
   -3.0683   -1.3050    0.9831 H   0  0  0  0  0  0  0  0  0  0  0  0
   -2.5139   -0.0290    2.0784 H   0  0  0  0  0  0  0  0  0  0  0  0
   -4.0339    0.1519    1.1995 H   0  0  0  0  0  0  0  0  0  0  0  0
  1  2  1  0  0  0  0
  2  3  2  0  0  0  0
  3  4  1  0  0  0  0
  4  5  2  0  0  0  0
  4  6  1  0  0  0  0
  6  7  1  0  0  0  0
  7  8  2  0  0  0  0
  2  9  1  0  0  0  0
  7  9  1  0  0  0  0
  6 10  1  0  0  0  0
 10 11  1  0  0  0  0
 10 12  1  0  0  0  0
 10 13  1  0  0  0  0
  3 14  1  0  0  0  0
  1 15  1  0  0  0  0
  1 16  1  0  0  0  0
  1 17  1  0  0  0  0
  9 18  1  0  0  0  0
 11 19  1  0  0  0  0
 11 20  1  0  0  0  0
 11 21  1  0  0  0  0
 12 22  1  0  0  0  0
 12 23  1  0  0  0  0
 12 24  1  0  0  0  0
 13 25  1  0  0  0  0
 13 26  1  0  0  0  0
 13 27  1  0  0  0  0
M  END
