 xtb: 6.7.1 (edcfbbe)
          04092505213D

 41 40  0     0  0            999 V2000
    4.4347    0.9311   -2.0843 C   0  0  0  0  0  0  0  0  0  0  0  0
    3.1308    0.1602   -2.0608 C   0  0  0  0  0  0  0  0  0  0  0  0
    2.2517    0.6799   -1.0348 O   0  0  0  0  0  0  0  0  0  0  0  0
    2.0857    0.0527    0.3995 P   0  0  0  0  0  0  0  0  0  0  0  0
    0.8829    1.1735    1.4542 S   0  0  0  0  0  0  0  0  0  0  0  0
    3.5856   -0.0655    0.9095 O   0  0  0  0  0  0  0  0  0  0  0  0
    4.0330   -0.9275    1.9738 C   0  0  0  0  0  0  0  0  0  0  0  0
    3.2167   -0.7751    3.2396 C   0  0  0  0  0  0  0  0  0  0  0  0
    1.5720   -1.9986    0.0998 S   0  0  0  0  0  0  0  0  0  0  0  0
   -0.0288   -1.7882   -0.7092 C   0  0  0  0  0  0  0  0  0  0  0  0
   -1.3704   -1.3504    0.4398 S   0  0  0  0  0  0  0  0  0  0  0  0
   -2.2290    0.2549   -0.6714 P   0  0  0  0  0  0  0  0  0  0  0  0
   -0.9760    1.1839   -1.8610 S   0  0  0  0  0  0  0  0  0  0  0  0
   -3.0751    1.0666    0.3933 O   0  0  0  0  0  0  0  0  0  0  0  0
   -2.5780    1.8495    1.4930 C   0  0  0  0  0  0  0  0  0  0  0  0
   -2.1390    3.2260    1.0379 C   0  0  0  0  0  0  0  0  0  0  0  0
   -3.3761   -0.3586   -1.5650 O   0  0  0  0  0  0  0  0  0  0  0  0
   -4.6983   -0.7502   -1.1224 C   0  0  0  0  0  0  0  0  0  0  0  0
   -4.6721   -1.8911   -0.1270 C   0  0  0  0  0  0  0  0  0  0  0  0
    4.9639    0.8042   -1.1436 H   0  0  0  0  0  0  0  0  0  0  0  0
    5.0506    0.5619   -2.8982 H   0  0  0  0  0  0  0  0  0  0  0  0
    4.2363    1.9889   -2.2341 H   0  0  0  0  0  0  0  0  0  0  0  0
    3.3030   -0.9046   -1.8791 H   0  0  0  0  0  0  0  0  0  0  0  0
    2.5715    0.2939   -2.9894 H   0  0  0  0  0  0  0  0  0  0  0  0
    3.9951   -1.9585    1.6114 H   0  0  0  0  0  0  0  0  0  0  0  0
    5.0701   -0.6252    2.1296 H   0  0  0  0  0  0  0  0  0  0  0  0
    3.6484   -1.3900    4.0226 H   0  0  0  0  0  0  0  0  0  0  0  0
    3.2040    0.2638    3.5611 H   0  0  0  0  0  0  0  0  0  0  0  0
    2.1893   -1.0926    3.0648 H   0  0  0  0  0  0  0  0  0  0  0  0
   -0.2578   -2.7510   -1.1583 H   0  0  0  0  0  0  0  0  0  0  0  0
    0.0396   -0.9984   -1.4636 H   0  0  0  0  0  0  0  0  0  0  0  0
   -3.4285    1.9090    2.1749 H   0  0  0  0  0  0  0  0  0  0  0  0
   -1.7514    1.3230    1.9761 H   0  0  0  0  0  0  0  0  0  0  0  0
   -1.2744    3.1454    0.3818 H   0  0  0  0  0  0  0  0  0  0  0  0
   -2.9434    3.7235    0.5023 H   0  0  0  0  0  0  0  0  0  0  0  0
   -1.8585    3.8140    1.9055 H   0  0  0  0  0  0  0  0  0  0  0  0
   -5.1895    0.1275   -0.6990 H   0  0  0  0  0  0  0  0  0  0  0  0
   -5.1914   -1.0401   -2.0517 H   0  0  0  0  0  0  0  0  0  0  0  0
   -4.1937   -1.5789    0.7992 H   0  0  0  0  0  0  0  0  0  0  0  0
   -5.6925   -2.1932    0.0873 H   0  0  0  0  0  0  0  0  0  0  0  0
   -4.1264   -2.7388   -0.5332 H   0  0  0  0  0  0  0  0  0  0  0  0
  1  2  1  0  0  0  0
  2  3  1  0  0  0  0
  3  4  2  0  0  0  0
  4  5  2  0  0  0  0
  4  6  2  0  0  0  0
  6  7  1  0  0  0  0
  7  8  1  0  0  0  0
  4  9  1  0  0  0  0
  9 10  1  0  0  0  0
 10 11  1  0  0  0  0
 11 12  1  0  0  0  0
 12 13  2  0  0  0  0
 12 14  2  0  0  0  0
 14 15  1  0  0  0  0
 15 16  1  0  0  0  0
 12 17  2  0  0  0  0
 17 18  1  0  0  0  0
 18 19  1  0  0  0  0
  1 20  1  0  0  0  0
  1 21  1  0  0  0  0
  1 22  1  0  0  0  0
  2 23  1  0  0  0  0
  2 24  1  0  0  0  0
  7 25  1  0  0  0  0
  7 26  1  0  0  0  0
  8 27  1  0  0  0  0
  8 28  1  0  0  0  0
  8 29  1  0  0  0  0
 10 30  1  0  0  0  0
 10 31  1  0  0  0  0
 15 32  1  0  0  0  0
 15 33  1  0  0  0  0
 16 34  1  0  0  0  0
 16 35  1  0  0  0  0
 16 36  1  0  0  0  0
 18 37  1  0  0  0  0
 18 38  1  0  0  0  0
 19 39  1  0  0  0  0
 19 40  1  0  0  0  0
 19 41  1  0  0  0  0
M  END
