 xtb: 6.7.1 (edcfbbe)
          04092505203D

 41 40  0     0  0            999 V2000
    3.7287    1.7121   -0.8302 C   0  0  0  0  0  0  0  0  0  0  0  0
    2.2858    1.8022   -0.3788 C   0  0  0  0  0  0  0  0  0  0  0  0
    1.6558    0.5123   -0.3837 O   0  0  0  0  0  0  0  0  0  0  0  0
    2.0109   -0.6206    0.6859 P   0  0  0  0  0  0  0  0  0  0  0  0
    2.6984    0.0544    2.3852 S   0  0  0  0  0  0  0  0  0  0  0  0
    3.0271   -1.6339    0.0170 O   0  0  0  0  0  0  0  0  0  0  0  0
    2.7117   -2.5937   -1.0189 C   0  0  0  0  0  0  0  0  0  0  0  0
    2.3610   -1.9357   -2.3368 C   0  0  0  0  0  0  0  0  0  0  0  0
    0.1940   -1.6906    0.7442 S   0  0  0  0  0  0  0  0  0  0  0  0
   -0.6194   -0.6378    1.9705 C   0  0  0  0  0  0  0  0  0  0  0  0
   -0.9530    1.0485    1.3853 S   0  0  0  0  0  0  0  0  0  0  0  0
   -2.0057    0.5965   -0.4041 P   0  0  0  0  0  0  0  0  0  0  0  0
   -1.0610    0.2322   -2.0852 S   0  0  0  0  0  0  0  0  0  0  0  0
   -3.0228    1.8166   -0.5318 O   0  0  0  0  0  0  0  0  0  0  0  0
   -2.6932    3.0184   -1.2443 C   0  0  0  0  0  0  0  0  0  0  0  0
   -1.6623    3.8425   -0.4995 C   0  0  0  0  0  0  0  0  0  0  0  0
   -2.9540   -0.5456    0.1354 O   0  0  0  0  0  0  0  0  0  0  0  0
   -3.4722   -1.6189   -0.6841 C   0  0  0  0  0  0  0  0  0  0  0  0
   -3.2481   -2.9366    0.0298 C   0  0  0  0  0  0  0  0  0  0  0  0
    3.7842    1.2961   -1.8327 H   0  0  0  0  0  0  0  0  0  0  0  0
    4.1720    2.7028   -0.8248 H   0  0  0  0  0  0  0  0  0  0  0  0
    4.2845    1.0687   -0.1477 H   0  0  0  0  0  0  0  0  0  0  0  0
    1.6824    2.3943   -1.0695 H   0  0  0  0  0  0  0  0  0  0  0  0
    2.2179    2.2209    0.6310 H   0  0  0  0  0  0  0  0  0  0  0  0
    3.6246   -3.1868   -1.0957 H   0  0  0  0  0  0  0  0  0  0  0  0
    1.8901   -3.2235   -0.6664 H   0  0  0  0  0  0  0  0  0  0  0  0
    1.4507   -1.3455   -2.2452 H   0  0  0  0  0  0  0  0  0  0  0  0
    3.1692   -1.2854   -2.6611 H   0  0  0  0  0  0  0  0  0  0  0  0
    2.2022   -2.7060   -3.0850 H   0  0  0  0  0  0  0  0  0  0  0  0
    0.0310   -0.5260    2.8392 H   0  0  0  0  0  0  0  0  0  0  0  0
   -1.5550   -1.1250    2.2329 H   0  0  0  0  0  0  0  0  0  0  0  0
   -2.3245    2.7419   -2.2382 H   0  0  0  0  0  0  0  0  0  0  0  0
   -3.6440    3.5451   -1.3348 H   0  0  0  0  0  0  0  0  0  0  0  0
   -1.4767    4.7668   -1.0369 H   0  0  0  0  0  0  0  0  0  0  0  0
   -2.0123    4.0694    0.5043 H   0  0  0  0  0  0  0  0  0  0  0  0
   -0.7300    3.2823   -0.4209 H   0  0  0  0  0  0  0  0  0  0  0  0
   -4.5350   -1.4154   -0.8274 H   0  0  0  0  0  0  0  0  0  0  0  0
   -2.9631   -1.6015   -1.6537 H   0  0  0  0  0  0  0  0  0  0  0  0
   -3.7397   -2.9264    0.9985 H   0  0  0  0  0  0  0  0  0  0  0  0
   -3.6617   -3.7390   -0.5722 H   0  0  0  0  0  0  0  0  0  0  0  0
   -2.1833   -3.1097    0.1735 H   0  0  0  0  0  0  0  0  0  0  0  0
  1  2  1  0  0  0  0
  2  3  1  0  0  0  0
  3  4  1  0  0  0  0
  4  5  2  0  0  0  0
  4  6  2  0  0  0  0
  6  7  1  0  0  0  0
  7  8  1  0  0  0  0
  4  9  1  0  0  0  0
  9 10  1  0  0  0  0
 10 11  1  0  0  0  0
 11 12  1  0  0  0  0
 12 13  2  0  0  0  0
 12 14  2  0  0  0  0
 14 15  1  0  0  0  0
 15 16  1  0  0  0  0
 12 17  2  0  0  0  0
 17 18  1  0  0  0  0
 18 19  1  0  0  0  0
  1 20  1  0  0  0  0
  1 21  1  0  0  0  0
  1 22  1  0  0  0  0
  2 23  1  0  0  0  0
  2 24  1  0  0  0  0
  7 25  1  0  0  0  0
  7 26  1  0  0  0  0
  8 27  1  0  0  0  0
  8 28  1  0  0  0  0
  8 29  1  0  0  0  0
 10 30  1  0  0  0  0
 10 31  1  0  0  0  0
 15 32  1  0  0  0  0
 15 33  1  0  0  0  0
 16 34  1  0  0  0  0
 16 35  1  0  0  0  0
 16 36  1  0  0  0  0
 18 37  1  0  0  0  0
 18 38  1  0  0  0  0
 19 39  1  0  0  0  0
 19 40  1  0  0  0  0
 19 41  1  0  0  0  0
M  END
