 xtb: 6.7.1 (edcfbbe)
          04092505203D

 41 40  0     0  0            999 V2000
    3.1451   -2.6499   -1.5878 C   0  0  0  0  0  0  0  0  0  0  0  0
    4.3006   -1.8161   -1.0787 C   0  0  0  0  0  0  0  0  0  0  0  0
    3.9755   -0.4047   -1.0005 O   0  0  0  0  0  0  0  0  0  0  0  0
    2.8300    0.2261   -0.1281 P   0  0  0  0  0  0  0  0  0  0  0  0
    3.1370    2.1267    0.2296 S   0  0  0  0  0  0  0  0  0  0  0  0
    2.8499   -0.7138    1.1580 O   0  0  0  0  0  0  0  0  0  0  0  0
    2.1090   -0.4279    2.3593 C   0  0  0  0  0  0  0  0  0  0  0  0
    0.9717   -1.4169    2.5231 C   0  0  0  0  0  0  0  0  0  0  0  0
    1.0191   -0.1791   -1.1991 S   0  0  0  0  0  0  0  0  0  0  0  0
    0.1473    1.3706   -0.8852 C   0  0  0  0  0  0  0  0  0  0  0  0
   -0.7823    1.3697    0.6723 S   0  0  0  0  0  0  0  0  0  0  0  0
   -2.3470    0.1274   -0.0150 P   0  0  0  0  0  0  0  0  0  0  0  0
   -2.9917    0.4396   -1.8458 S   0  0  0  0  0  0  0  0  0  0  0  0
   -3.4546    0.2074    1.1199 O   0  0  0  0  0  0  0  0  0  0  0  0
   -4.5129    1.1800    1.0989 C   0  0  0  0  0  0  0  0  0  0  0  0
   -3.9973    2.5893    1.3084 C   0  0  0  0  0  0  0  0  0  0  0  0
   -1.6980   -1.2910    0.2579 O   0  0  0  0  0  0  0  0  0  0  0  0
   -2.1426   -2.4856   -0.4180 C   0  0  0  0  0  0  0  0  0  0  0  0
   -3.5382   -2.8857    0.0111 C   0  0  0  0  0  0  0  0  0  0  0  0
    2.7983   -2.2752   -2.5477 H   0  0  0  0  0  0  0  0  0  0  0  0
    3.4720   -3.6788   -1.7015 H   0  0  0  0  0  0  0  0  0  0  0  0
    2.3174   -2.6165   -0.8817 H   0  0  0  0  0  0  0  0  0  0  0  0
    5.1469   -1.8358   -1.7669 H   0  0  0  0  0  0  0  0  0  0  0  0
    4.6168   -2.1466   -0.0878 H   0  0  0  0  0  0  0  0  0  0  0  0
    2.8328   -0.5229    3.1716 H   0  0  0  0  0  0  0  0  0  0  0  0
    1.7440    0.6040    2.3257 H   0  0  0  0  0  0  0  0  0  0  0  0
    0.2532   -1.3163    1.7132 H   0  0  0  0  0  0  0  0  0  0  0  0
    1.3594   -2.4317    2.5275 H   0  0  0  0  0  0  0  0  0  0  0  0
    0.4660   -1.2209    3.4630 H   0  0  0  0  0  0  0  0  0  0  0  0
   -0.5463    1.5192   -1.7130 H   0  0  0  0  0  0  0  0  0  0  0  0
    0.8730    2.1830   -0.8198 H   0  0  0  0  0  0  0  0  0  0  0  0
   -5.0362    1.1022    0.1403 H   0  0  0  0  0  0  0  0  0  0  0  0
   -5.1726    0.8677    1.9095 H   0  0  0  0  0  0  0  0  0  0  0  0
   -4.8371    3.2701    1.4045 H   0  0  0  0  0  0  0  0  0  0  0  0
   -3.3861    2.6392    2.2061 H   0  0  0  0  0  0  0  0  0  0  0  0
   -3.3916    2.8959    0.4563 H   0  0  0  0  0  0  0  0  0  0  0  0
   -2.1017   -2.3073   -1.4971 H   0  0  0  0  0  0  0  0  0  0  0  0
   -1.4014   -3.2354   -0.1393 H   0  0  0  0  0  0  0  0  0  0  0  0
   -3.5890   -2.9684    1.0936 H   0  0  0  0  0  0  0  0  0  0  0  0
   -4.2561   -2.1356   -0.3188 H   0  0  0  0  0  0  0  0  0  0  0  0
   -3.7942   -3.8398   -0.4388 H   0  0  0  0  0  0  0  0  0  0  0  0
  1  2  1  0  0  0  0
  2  3  1  0  0  0  0
  3  4  2  0  0  0  0
  4  5  2  0  0  0  0
  4  6  2  0  0  0  0
  6  7  1  0  0  0  0
  7  8  1  0  0  0  0
  4  9  1  0  0  0  0
  9 10  1  0  0  0  0
 10 11  1  0  0  0  0
 11 12  1  0  0  0  0
 12 13  2  0  0  0  0
 12 14  2  0  0  0  0
 14 15  1  0  0  0  0
 15 16  1  0  0  0  0
 12 17  2  0  0  0  0
 17 18  1  0  0  0  0
 18 19  1  0  0  0  0
  1 20  1  0  0  0  0
  1 21  1  0  0  0  0
  1 22  1  0  0  0  0
  2 23  1  0  0  0  0
  2 24  1  0  0  0  0
  7 25  1  0  0  0  0
  7 26  1  0  0  0  0
  8 27  1  0  0  0  0
  8 28  1  0  0  0  0
  8 29  1  0  0  0  0
 10 30  1  0  0  0  0
 10 31  1  0  0  0  0
 15 32  1  0  0  0  0
 15 33  1  0  0  0  0
 16 34  1  0  0  0  0
 16 35  1  0  0  0  0
 16 36  1  0  0  0  0
 18 37  1  0  0  0  0
 18 38  1  0  0  0  0
 19 39  1  0  0  0  0
 19 40  1  0  0  0  0
 19 41  1  0  0  0  0
M  END
