 xtb: 6.7.1 (edcfbbe)
          04092505213D

 41 40  0     0  0            999 V2000
    3.3470   -1.8816   -2.5877 C   0  0  0  0  0  0  0  0  0  0  0  0
    3.9298   -0.5145   -2.2863 C   0  0  0  0  0  0  0  0  0  0  0  0
    3.7428   -0.1429   -0.9124 O   0  0  0  0  0  0  0  0  0  0  0  0
    2.3676    0.3783   -0.3203 P   0  0  0  0  0  0  0  0  0  0  0  0
    1.2460    1.3279   -1.6293 S   0  0  0  0  0  0  0  0  0  0  0  0
    3.0459    1.2066    0.8369 O   0  0  0  0  0  0  0  0  0  0  0  0
    2.4155    1.9704    1.8797 C   0  0  0  0  0  0  0  0  0  0  0  0
    2.2645    1.1476    3.1437 C   0  0  0  0  0  0  0  0  0  0  0  0
    1.4745   -1.3074    0.6134 S   0  0  0  0  0  0  0  0  0  0  0  0
    0.1778   -1.6912   -0.6167 C   0  0  0  0  0  0  0  0  0  0  0  0
   -1.4583   -1.9319    0.1080 S   0  0  0  0  0  0  0  0  0  0  0  0
   -2.0489    0.1100    0.2886 P   0  0  0  0  0  0  0  0  0  0  0  0
   -0.9575    1.2937    1.3975 S   0  0  0  0  0  0  0  0  0  0  0  0
   -3.5839   -0.0232    0.6736 O   0  0  0  0  0  0  0  0  0  0  0  0
   -4.1023   -0.8683    1.7188 C   0  0  0  0  0  0  0  0  0  0  0  0
   -3.4046   -0.6590    3.0458 C   0  0  0  0  0  0  0  0  0  0  0  0
   -2.0996    0.6821   -1.1772 O   0  0  0  0  0  0  0  0  0  0  0  0
   -2.8830    0.1084   -2.2524 C   0  0  0  0  0  0  0  0  0  0  0  0
   -4.1957    0.8481   -2.4081 C   0  0  0  0  0  0  0  0  0  0  0  0
    2.2600   -1.8355   -2.5615 H   0  0  0  0  0  0  0  0  0  0  0  0
    3.6617   -2.1948   -3.5780 H   0  0  0  0  0  0  0  0  0  0  0  0
    3.6922   -2.6053   -1.8538 H   0  0  0  0  0  0  0  0  0  0  0  0
    3.4748    0.2510   -2.9237 H   0  0  0  0  0  0  0  0  0  0  0  0
    5.0133   -0.5044   -2.4133 H   0  0  0  0  0  0  0  0  0  0  0  0
    3.0922    2.8130    2.0362 H   0  0  0  0  0  0  0  0  0  0  0  0
    1.4464    2.3425    1.5361 H   0  0  0  0  0  0  0  0  0  0  0  0
    1.5293    0.3598    2.9985 H   0  0  0  0  0  0  0  0  0  0  0  0
    3.2180    0.7025    3.4135 H   0  0  0  0  0  0  0  0  0  0  0  0
    1.9232    1.7951    3.9445 H   0  0  0  0  0  0  0  0  0  0  0  0
    0.4243   -2.6372   -1.0916 H   0  0  0  0  0  0  0  0  0  0  0  0
    0.1403   -0.8672   -1.3358 H   0  0  0  0  0  0  0  0  0  0  0  0
   -5.1563   -0.5906    1.7747 H   0  0  0  0  0  0  0  0  0  0  0  0
   -4.0066   -1.9073    1.3917 H   0  0  0  0  0  0  0  0  0  0  0  0
   -2.3582   -0.9524    2.9702 H   0  0  0  0  0  0  0  0  0  0  0  0
   -3.4462    0.3882    3.3368 H   0  0  0  0  0  0  0  0  0  0  0  0
   -3.8870   -1.2642    3.8066 H   0  0  0  0  0  0  0  0  0  0  0  0
   -2.2537    0.2248   -3.1373 H   0  0  0  0  0  0  0  0  0  0  0  0
   -3.0479   -0.9532   -2.0474 H   0  0  0  0  0  0  0  0  0  0  0  0
   -4.7984    0.7399   -1.5102 H   0  0  0  0  0  0  0  0  0  0  0  0
   -4.0078    1.9050   -2.5771 H   0  0  0  0  0  0  0  0  0  0  0  0
   -4.7353    0.4391   -3.2566 H   0  0  0  0  0  0  0  0  0  0  0  0
  1  2  1  0  0  0  0
  2  3  1  0  0  0  0
  3  4  2  0  0  0  0
  4  5  2  0  0  0  0
  4  6  2  0  0  0  0
  6  7  1  0  0  0  0
  7  8  1  0  0  0  0
  4  9  1  0  0  0  0
  9 10  1  0  0  0  0
 10 11  1  0  0  0  0
 11 12  1  0  0  0  0
 12 13  2  0  0  0  0
 12 14  2  0  0  0  0
 14 15  1  0  0  0  0
 15 16  1  0  0  0  0
 12 17  2  0  0  0  0
 17 18  1  0  0  0  0
 18 19  1  0  0  0  0
  1 20  1  0  0  0  0
  1 21  1  0  0  0  0
  1 22  1  0  0  0  0
  2 23  1  0  0  0  0
  2 24  1  0  0  0  0
  7 25  1  0  0  0  0
  7 26  1  0  0  0  0
  8 27  1  0  0  0  0
  8 28  1  0  0  0  0
  8 29  1  0  0  0  0
 10 30  1  0  0  0  0
 10 31  1  0  0  0  0
 15 32  1  0  0  0  0
 15 33  1  0  0  0  0
 16 34  1  0  0  0  0
 16 35  1  0  0  0  0
 16 36  1  0  0  0  0
 18 37  1  0  0  0  0
 18 38  1  0  0  0  0
 19 39  1  0  0  0  0
 19 40  1  0  0  0  0
 19 41  1  0  0  0  0
M  END
