 xtb: 6.7.1 (edcfbbe)
          04092505213D

 41 40  0     0  0            999 V2000
    2.3133    2.3545   -0.9209 C   0  0  0  0  0  0  0  0  0  0  0  0
    2.1371    0.9549   -1.4729 C   0  0  0  0  0  0  0  0  0  0  0  0
    2.8753   -0.0307   -0.7360 O   0  0  0  0  0  0  0  0  0  0  0  0
    2.6262   -0.4821    0.7704 P   0  0  0  0  0  0  0  0  0  0  0  0
    3.0511    0.7819    2.2036 S   0  0  0  0  0  0  0  0  0  0  0  0
    3.5756   -1.7325    0.8653 O   0  0  0  0  0  0  0  0  0  0  0  0
    3.8267   -2.6963   -0.1870 C   0  0  0  0  0  0  0  0  0  0  0  0
    2.5771   -3.4400   -0.6076 C   0  0  0  0  0  0  0  0  0  0  0  0
    0.6271   -1.2490    0.8511 S   0  0  0  0  0  0  0  0  0  0  0  0
   -0.1397    0.0180    1.8806 C   0  0  0  0  0  0  0  0  0  0  0  0
   -0.7845    1.4415    0.9499 S   0  0  0  0  0  0  0  0  0  0  0  0
   -2.0997    0.4141   -0.3644 P   0  0  0  0  0  0  0  0  0  0  0  0
   -1.3594   -0.4111   -1.9874 S   0  0  0  0  0  0  0  0  0  0  0  0
   -3.2041    1.5145   -0.6652 O   0  0  0  0  0  0  0  0  0  0  0  0
   -2.9748    2.5750   -1.6143 C   0  0  0  0  0  0  0  0  0  0  0  0
   -4.3173    3.1817   -1.9688 C   0  0  0  0  0  0  0  0  0  0  0  0
   -2.8316   -0.5489    0.6507 O   0  0  0  0  0  0  0  0  0  0  0  0
   -3.4857   -1.7578    0.2060 C   0  0  0  0  0  0  0  0  0  0  0  0
   -4.7395   -1.4481   -0.5832 C   0  0  0  0  0  0  0  0  0  0  0  0
    1.8391    3.0631   -1.5923 H   0  0  0  0  0  0  0  0  0  0  0  0
    1.8554    2.4418    0.0629 H   0  0  0  0  0  0  0  0  0  0  0  0
    3.3705    2.5921   -0.8331 H   0  0  0  0  0  0  0  0  0  0  0  0
    2.5422    0.8741   -2.4835 H   0  0  0  0  0  0  0  0  0  0  0  0
    1.0810    0.6671   -1.4914 H   0  0  0  0  0  0  0  0  0  0  0  0
    4.2731   -2.1698   -1.0324 H   0  0  0  0  0  0  0  0  0  0  0  0
    4.5597   -3.3669    0.2641 H   0  0  0  0  0  0  0  0  0  0  0  0
    2.1001   -3.9001    0.2542 H   0  0  0  0  0  0  0  0  0  0  0  0
    1.8669   -2.7618   -1.0794 H   0  0  0  0  0  0  0  0  0  0  0  0
    2.8472   -4.2121   -1.3215 H   0  0  0  0  0  0  0  0  0  0  0  0
    0.6095    0.4245    2.5647 H   0  0  0  0  0  0  0  0  0  0  0  0
   -0.9574   -0.4539    2.4182 H   0  0  0  0  0  0  0  0  0  0  0  0
   -2.3139    3.3114   -1.1487 H   0  0  0  0  0  0  0  0  0  0  0  0
   -2.4782    2.1534   -2.4951 H   0  0  0  0  0  0  0  0  0  0  0  0
   -4.1643    4.0049   -2.6588 H   0  0  0  0  0  0  0  0  0  0  0  0
   -4.9549    2.4364   -2.4357 H   0  0  0  0  0  0  0  0  0  0  0  0
   -4.8050    3.5498   -1.0709 H   0  0  0  0  0  0  0  0  0  0  0  0
   -2.7769   -2.3343   -0.3971 H   0  0  0  0  0  0  0  0  0  0  0  0
   -3.7070   -2.2920    1.1307 H   0  0  0  0  0  0  0  0  0  0  0  0
   -5.3993   -0.8075   -0.0041 H   0  0  0  0  0  0  0  0  0  0  0  0
   -4.4742   -0.9364   -1.5075 H   0  0  0  0  0  0  0  0  0  0  0  0
   -5.2517   -2.3737   -0.8259 H   0  0  0  0  0  0  0  0  0  0  0  0
  1  2  1  0  0  0  0
  2  3  1  0  0  0  0
  3  4  2  0  0  0  0
  4  5  2  0  0  0  0
  4  6  2  0  0  0  0
  6  7  1  0  0  0  0
  7  8  1  0  0  0  0
  4  9  1  0  0  0  0
  9 10  1  0  0  0  0
 10 11  1  0  0  0  0
 11 12  1  0  0  0  0
 12 13  2  0  0  0  0
 12 14  2  0  0  0  0
 14 15  1  0  0  0  0
 15 16  1  0  0  0  0
 12 17  2  0  0  0  0
 17 18  1  0  0  0  0
 18 19  1  0  0  0  0
  1 20  1  0  0  0  0
  1 21  1  0  0  0  0
  1 22  1  0  0  0  0
  2 23  1  0  0  0  0
  2 24  1  0  0  0  0
  7 25  1  0  0  0  0
  7 26  1  0  0  0  0
  8 27  1  0  0  0  0
  8 28  1  0  0  0  0
  8 29  1  0  0  0  0
 10 30  1  0  0  0  0
 10 31  1  0  0  0  0
 15 32  1  0  0  0  0
 15 33  1  0  0  0  0
 16 34  1  0  0  0  0
 16 35  1  0  0  0  0
 16 36  1  0  0  0  0
 18 37  1  0  0  0  0
 18 38  1  0  0  0  0
 19 39  1  0  0  0  0
 19 40  1  0  0  0  0
 19 41  1  0  0  0  0
M  END
