 xtb: 6.7.1 (edcfbbe)
          04092505213D

 41 40  0     0  0            999 V2000
    4.0736   -0.5791   -2.2157 C   0  0  0  0  0  0  0  0  0  0  0  0
    2.6592   -0.0719   -2.3973 C   0  0  0  0  0  0  0  0  0  0  0  0
    2.1469    0.6468   -1.2482 O   0  0  0  0  0  0  0  0  0  0  0  0
    2.0885    0.1698    0.2503 P   0  0  0  0  0  0  0  0  0  0  0  0
    0.9536    1.4145    1.2467 S   0  0  0  0  0  0  0  0  0  0  0  0
    3.6123    0.1355    0.6897 O   0  0  0  0  0  0  0  0  0  0  0  0
    4.1388   -0.6030    1.8076 C   0  0  0  0  0  0  0  0  0  0  0  0
    3.4016   -0.3235    3.1003 C   0  0  0  0  0  0  0  0  0  0  0  0
    1.5473   -1.8912    0.2314 S   0  0  0  0  0  0  0  0  0  0  0  0
   -0.1304   -1.7380   -0.4188 C   0  0  0  0  0  0  0  0  0  0  0  0
   -1.3757   -1.2852    0.8421 S   0  0  0  0  0  0  0  0  0  0  0  0
   -2.3897    0.2568   -0.2120 P   0  0  0  0  0  0  0  0  0  0  0  0
   -1.3800    1.0969   -1.6784 S   0  0  0  0  0  0  0  0  0  0  0  0
   -3.0454    1.1320    0.9237 O   0  0  0  0  0  0  0  0  0  0  0  0
   -2.4009    1.9530    1.9104 C   0  0  0  0  0  0  0  0  0  0  0  0
   -2.0878    3.3287    1.3565 C   0  0  0  0  0  0  0  0  0  0  0  0
   -3.7681   -0.3710   -0.6802 O   0  0  0  0  0  0  0  0  0  0  0  0
   -4.0105   -0.8653   -2.0056 C   0  0  0  0  0  0  0  0  0  0  0  0
   -3.3842   -2.2291   -2.2230 C   0  0  0  0  0  0  0  0  0  0  0  0
    4.4287   -0.9655   -3.1662 H   0  0  0  0  0  0  0  0  0  0  0  0
    4.7242    0.2289   -1.8918 H   0  0  0  0  0  0  0  0  0  0  0  0
    4.1026   -1.3771   -1.4773 H   0  0  0  0  0  0  0  0  0  0  0  0
    1.9761   -0.8968   -2.6158 H   0  0  0  0  0  0  0  0  0  0  0  0
    2.5956    0.6713   -3.1941 H   0  0  0  0  0  0  0  0  0  0  0  0
    4.0945   -1.6677    1.5618 H   0  0  0  0  0  0  0  0  0  0  0  0
    5.1788   -0.2767    1.8634 H   0  0  0  0  0  0  0  0  0  0  0  0
    2.3700   -0.6666    3.0277 H   0  0  0  0  0  0  0  0  0  0  0  0
    3.8911   -0.8467    3.9154 H   0  0  0  0  0  0  0  0  0  0  0  0
    3.3927    0.7438    3.3097 H   0  0  0  0  0  0  0  0  0  0  0  0
   -0.3786   -2.7225   -0.8070 H   0  0  0  0  0  0  0  0  0  0  0  0
   -0.1561   -0.9698   -1.1980 H   0  0  0  0  0  0  0  0  0  0  0  0
   -3.1306    2.0077    2.7206 H   0  0  0  0  0  0  0  0  0  0  0  0
   -1.4900    1.4653    2.2669 H   0  0  0  0  0  0  0  0  0  0  0  0
   -2.9856    3.7830    0.9462 H   0  0  0  0  0  0  0  0  0  0  0  0
   -1.6921    3.9515    2.1519 H   0  0  0  0  0  0  0  0  0  0  0  0
   -1.3371    3.2537    0.5718 H   0  0  0  0  0  0  0  0  0  0  0  0
   -5.0985   -0.9089   -2.0726 H   0  0  0  0  0  0  0  0  0  0  0  0
   -3.6231   -0.1405   -2.7295 H   0  0  0  0  0  0  0  0  0  0  0  0
   -2.3003   -2.1372   -2.2581 H   0  0  0  0  0  0  0  0  0  0  0  0
   -3.6603   -2.9005   -1.4141 H   0  0  0  0  0  0  0  0  0  0  0  0
   -3.7332   -2.6380   -3.1657 H   0  0  0  0  0  0  0  0  0  0  0  0
  1  2  1  0  0  0  0
  2  3  1  0  0  0  0
  3  4  2  0  0  0  0
  4  5  2  0  0  0  0
  4  6  2  0  0  0  0
  6  7  1  0  0  0  0
  7  8  1  0  0  0  0
  4  9  1  0  0  0  0
  9 10  1  0  0  0  0
 10 11  1  0  0  0  0
 11 12  1  0  0  0  0
 12 13  2  0  0  0  0
 12 14  2  0  0  0  0
 14 15  1  0  0  0  0
 15 16  1  0  0  0  0
 12 17  2  0  0  0  0
 17 18  1  0  0  0  0
 18 19  1  0  0  0  0
  1 20  1  0  0  0  0
  1 21  1  0  0  0  0
  1 22  1  0  0  0  0
  2 23  1  0  0  0  0
  2 24  1  0  0  0  0
  7 25  1  0  0  0  0
  7 26  1  0  0  0  0
  8 27  1  0  0  0  0
  8 28  1  0  0  0  0
  8 29  1  0  0  0  0
 10 30  1  0  0  0  0
 10 31  1  0  0  0  0
 15 32  1  0  0  0  0
 15 33  1  0  0  0  0
 16 34  1  0  0  0  0
 16 35  1  0  0  0  0
 16 36  1  0  0  0  0
 18 37  1  0  0  0  0
 18 38  1  0  0  0  0
 19 39  1  0  0  0  0
 19 40  1  0  0  0  0
 19 41  1  0  0  0  0
M  END
