 xtb: 6.7.1 (edcfbbe)
          04092505203D

 41 40  0     0  0            999 V2000
    4.6703    0.5009   -1.5558 C   0  0  0  0  0  0  0  0  0  0  0  0
    4.6226    0.1783   -0.0768 C   0  0  0  0  0  0  0  0  0  0  0  0
    3.3967   -0.4728    0.3053 O   0  0  0  0  0  0  0  0  0  0  0  0
    1.9888    0.2624    0.2325 P   0  0  0  0  0  0  0  0  0  0  0  0
    2.0225    2.1401    0.7716 S   0  0  0  0  0  0  0  0  0  0  0  0
    1.1001   -0.6238    1.2034 O   0  0  0  0  0  0  0  0  0  0  0  0
    1.1664   -2.0702    1.2235 C   0  0  0  0  0  0  0  0  0  0  0  0
    2.0813   -2.5509    2.3294 C   0  0  0  0  0  0  0  0  0  0  0  0
    1.3453   -0.2917   -1.7183 S   0  0  0  0  0  0  0  0  0  0  0  0
   -0.0861    0.8110   -1.9950 C   0  0  0  0  0  0  0  0  0  0  0  0
   -0.9906    1.3549   -0.5304 S   0  0  0  0  0  0  0  0  0  0  0  0
   -2.0536   -0.4147    0.0152 P   0  0  0  0  0  0  0  0  0  0  0  0
   -1.6809   -2.0385   -1.0058 S   0  0  0  0  0  0  0  0  0  0  0  0
   -3.5934    0.0014    0.0103 O   0  0  0  0  0  0  0  0  0  0  0  0
   -4.4327   -0.1236   -1.1468 C   0  0  0  0  0  0  0  0  0  0  0  0
   -4.1002    0.9036   -2.2107 C   0  0  0  0  0  0  0  0  0  0  0  0
   -1.7889   -0.5982    1.5590 O   0  0  0  0  0  0  0  0  0  0  0  0
   -1.6218    0.4456    2.5450 C   0  0  0  0  0  0  0  0  0  0  0  0
   -2.7388    1.4650    2.5253 C   0  0  0  0  0  0  0  0  0  0  0  0
    4.4526   -0.3861   -2.1457 H   0  0  0  0  0  0  0  0  0  0  0  0
    3.9361    1.2698   -1.7918 H   0  0  0  0  0  0  0  0  0  0  0  0
    5.6590    0.8700   -1.8089 H   0  0  0  0  0  0  0  0  0  0  0  0
    4.7254    1.0907    0.5187 H   0  0  0  0  0  0  0  0  0  0  0  0
    5.3953   -0.5389    0.2036 H   0  0  0  0  0  0  0  0  0  0  0  0
    0.1361   -2.3930    1.3914 H   0  0  0  0  0  0  0  0  0  0  0  0
    1.4977   -2.4256    0.2437 H   0  0  0  0  0  0  0  0  0  0  0  0
    1.7564   -2.1442    3.2832 H   0  0  0  0  0  0  0  0  0  0  0  0
    2.0433   -3.6351    2.3688 H   0  0  0  0  0  0  0  0  0  0  0  0
    3.1028   -2.2332    2.1396 H   0  0  0  0  0  0  0  0  0  0  0  0
   -0.7439    0.2507   -2.6581 H   0  0  0  0  0  0  0  0  0  0  0  0
    0.2657    1.7256   -2.4677 H   0  0  0  0  0  0  0  0  0  0  0  0
   -4.3301   -1.1391   -1.5433 H   0  0  0  0  0  0  0  0  0  0  0  0
   -5.4405    0.0194   -0.7545 H   0  0  0  0  0  0  0  0  0  0  0  0
   -4.0809    1.9017   -1.7808 H   0  0  0  0  0  0  0  0  0  0  0  0
   -3.1266    0.6893   -2.6478 H   0  0  0  0  0  0  0  0  0  0  0  0
   -4.8506    0.8636   -2.9937 H   0  0  0  0  0  0  0  0  0  0  0  0
   -1.5952   -0.1051    3.4866 H   0  0  0  0  0  0  0  0  0  0  0  0
   -0.6512    0.9222    2.3755 H   0  0  0  0  0  0  0  0  0  0  0  0
   -2.7240    2.0227    1.5901 H   0  0  0  0  0  0  0  0  0  0  0  0
   -3.7013    0.9708    2.6286 H   0  0  0  0  0  0  0  0  0  0  0  0
   -2.5966    2.1591    3.3481 H   0  0  0  0  0  0  0  0  0  0  0  0
  1  2  1  0  0  0  0
  2  3  1  0  0  0  0
  3  4  2  0  0  0  0
  4  5  2  0  0  0  0
  4  6  2  0  0  0  0
  6  7  1  0  0  0  0
  7  8  1  0  0  0  0
  4  9  1  0  0  0  0
  9 10  1  0  0  0  0
 10 11  1  0  0  0  0
 11 12  1  0  0  0  0
 12 13  2  0  0  0  0
 12 14  2  0  0  0  0
 14 15  1  0  0  0  0
 15 16  1  0  0  0  0
 12 17  2  0  0  0  0
 17 18  1  0  0  0  0
 18 19  1  0  0  0  0
  1 20  1  0  0  0  0
  1 21  1  0  0  0  0
  1 22  1  0  0  0  0
  2 23  1  0  0  0  0
  2 24  1  0  0  0  0
  7 25  1  0  0  0  0
  7 26  1  0  0  0  0
  8 27  1  0  0  0  0
  8 28  1  0  0  0  0
  8 29  1  0  0  0  0
 10 30  1  0  0  0  0
 10 31  1  0  0  0  0
 15 32  1  0  0  0  0
 15 33  1  0  0  0  0
 16 34  1  0  0  0  0
 16 35  1  0  0  0  0
 16 36  1  0  0  0  0
 18 37  1  0  0  0  0
 18 38  1  0  0  0  0
 19 39  1  0  0  0  0
 19 40  1  0  0  0  0
 19 41  1  0  0  0  0
M  END
