 xtb: 6.7.1 (edcfbbe)
          04092507313D

 38 37  0     0  0            999 V2000
    5.2628   -2.7598   -0.4071 C   0  0  0  0  0  0  0  0  0  0  0  0
    4.8556   -1.7862   -1.5012 C   0  0  0  0  0  0  0  0  0  0  0  0
    3.4433   -1.8861   -1.7771 O   0  0  0  0  0  0  0  0  0  0  0  0
    2.6084   -1.1702   -1.0568 C   0  0  0  0  0  0  0  0  0  0  0  0
    2.9378   -0.3848   -0.1916 O   0  0  0  0  0  0  0  0  0  0  0  0
    1.1681   -1.4495   -1.4266 C   0  0  0  0  0  0  0  0  0  0  0  0
    0.2745   -0.3600   -0.8521 C   0  0  0  0  0  0  0  0  0  0  0  0
    0.3856    0.5935   -1.3738 H   0  0  0  0  0  0  0  0  0  0  0  0
    0.5611   -0.1577    0.6262 C   0  0  0  0  0  0  0  0  0  0  0  0
    0.5740   -1.0669    1.4283 O   0  0  0  0  0  0  0  0  0  0  0  0
    0.6876    1.1180    0.9109 O   0  0  0  0  0  0  0  0  0  0  0  0
    1.0125    1.5061    2.2593 C   0  0  0  0  0  0  0  0  0  0  0  0
    2.4382    2.0279    2.3041 C   0  0  0  0  0  0  0  0  0  0  0  0
   -1.4703   -0.8878   -0.9748 S   0  0  0  0  0  0  0  0  0  0  0  0
   -2.3256    0.7648    0.0524 P   0  0  0  0  0  0  0  0  0  0  0  0
   -1.7761    2.5446   -0.5328 S   0  0  0  0  0  0  0  0  0  0  0  0
   -3.8842    0.4544   -0.0940 O   0  0  0  0  0  0  0  0  0  0  0  0
   -4.5508    0.6072   -1.3550 C   0  0  0  0  0  0  0  0  0  0  0  0
   -2.1156    0.5376    1.6049 O   0  0  0  0  0  0  0  0  0  0  0  0
   -2.5278   -0.6610    2.2972 C   0  0  0  0  0  0  0  0  0  0  0  0
    6.3358   -2.7033   -0.2574 H   0  0  0  0  0  0  0  0  0  0  0  0
    4.7625   -2.5059    0.5251 H   0  0  0  0  0  0  0  0  0  0  0  0
    4.9920   -3.7737   -0.6883 H   0  0  0  0  0  0  0  0  0  0  0  0
    5.3346   -2.0291   -2.4495 H   0  0  0  0  0  0  0  0  0  0  0  0
    5.0822   -0.7567   -1.2100 H   0  0  0  0  0  0  0  0  0  0  0  0
    0.8999   -2.4121   -0.9817 H   0  0  0  0  0  0  0  0  0  0  0  0
    1.0609   -1.5291   -2.5072 H   0  0  0  0  0  0  0  0  0  0  0  0
    0.2889    2.2813    2.5208 H   0  0  0  0  0  0  0  0  0  0  0  0
    0.8839    0.6352    2.9082 H   0  0  0  0  0  0  0  0  0  0  0  0
    2.6941    2.2900    3.3251 H   0  0  0  0  0  0  0  0  0  0  0  0
    3.1184    1.2600    1.9428 H   0  0  0  0  0  0  0  0  0  0  0  0
    2.5328    2.9036    1.6686 H   0  0  0  0  0  0  0  0  0  0  0  0
   -4.2765   -0.2123   -2.0182 H   0  0  0  0  0  0  0  0  0  0  0  0
   -4.2791    1.5618   -1.8077 H   0  0  0  0  0  0  0  0  0  0  0  0
   -5.6134    0.5816   -1.1276 H   0  0  0  0  0  0  0  0  0  0  0  0
   -3.4180   -1.0815    1.8354 H   0  0  0  0  0  0  0  0  0  0  0  0
   -2.7347   -0.3484    3.3174 H   0  0  0  0  0  0  0  0  0  0  0  0
   -1.7069   -1.3789    2.2766 H   0  0  0  0  0  0  0  0  0  0  0  0
  1  2  1  0  0  0  0
  2  3  1  0  0  0  0
  3  4  4  0  0  0  0
  4  5  2  0  0  0  0
  4  6  1  0  0  0  0
  6  7  1  0  0  0  0
  7  8  1  0  0  0  0
  7  9  1  0  0  0  0
  9 10  2  0  0  0  0
  9 11  1  0  0  0  0
 11 12  1  0  0  0  0
 12 13  1  0  0  0  0
  7 14  1  0  0  0  0
 14 15  1  0  0  0  0
 15 16  2  0  0  0  0
 15 17  2  0  0  0  0
 17 18  1  0  0  0  0
 15 19  2  0  0  0  0
 19 20  1  0  0  0  0
  1 21  1  0  0  0  0
  1 22  1  0  0  0  0
  1 23  1  0  0  0  0
  2 24  1  0  0  0  0
  2 25  1  0  0  0  0
  6 26  1  0  0  0  0
  6 27  1  0  0  0  0
 12 28  1  0  0  0  0
 12 29  1  0  0  0  0
 13 30  1  0  0  0  0
 13 31  1  0  0  0  0
 13 32  1  0  0  0  0
 18 33  1  0  0  0  0
 18 34  1  0  0  0  0
 18 35  1  0  0  0  0
 20 36  1  0  0  0  0
 20 37  1  0  0  0  0
 20 38  1  0  0  0  0
M  END
