 xtb: 6.7.1 (edcfbbe)
          04092505213D

 41 40  0     0  0            999 V2000
    5.2622    0.1142   -1.1004 C   0  0  0  0  0  0  0  0  0  0  0  0
    4.4689    1.2767   -0.5381 C   0  0  0  0  0  0  0  0  0  0  0  0
    3.4579    0.8261    0.3836 O   0  0  0  0  0  0  0  0  0  0  0  0
    1.9865    0.4584   -0.0774 P   0  0  0  0  0  0  0  0  0  0  0  0
    1.1210    1.7567   -1.2644 S   0  0  0  0  0  0  0  0  0  0  0  0
    1.2209    0.3391    1.2967 O   0  0  0  0  0  0  0  0  0  0  0  0
    1.7780   -0.1380    2.5498 C   0  0  0  0  0  0  0  0  0  0  0  0
    2.3055   -1.5539    2.4650 C   0  0  0  0  0  0  0  0  0  0  0  0
    2.1276   -1.4860   -0.9316 S   0  0  0  0  0  0  0  0  0  0  0  0
    0.3842   -1.6807   -1.3402 C   0  0  0  0  0  0  0  0  0  0  0  0
   -0.6625   -1.9432    0.1357 S   0  0  0  0  0  0  0  0  0  0  0  0
   -2.0747   -0.4047   -0.0761 P   0  0  0  0  0  0  0  0  0  0  0  0
   -2.2848    0.3506   -1.8775 S   0  0  0  0  0  0  0  0  0  0  0  0
   -1.8199    0.6667    1.0776 O   0  0  0  0  0  0  0  0  0  0  0  0
   -1.5963    2.0699    0.8785 C   0  0  0  0  0  0  0  0  0  0  0  0
   -2.7398    2.8568    1.4870 C   0  0  0  0  0  0  0  0  0  0  0  0
   -3.2611   -1.2709    0.5281 O   0  0  0  0  0  0  0  0  0  0  0  0
   -4.4764   -0.7074    1.0591 C   0  0  0  0  0  0  0  0  0  0  0  0
   -5.3810   -0.1703   -0.0321 C   0  0  0  0  0  0  0  0  0  0  0  0
    4.6206   -0.5368   -1.6902 H   0  0  0  0  0  0  0  0  0  0  0  0
    6.0541    0.5008   -1.7339 H   0  0  0  0  0  0  0  0  0  0  0  0
    5.7005   -0.4652   -0.2929 H   0  0  0  0  0  0  0  0  0  0  0  0
    3.9866    1.8537   -1.3338 H   0  0  0  0  0  0  0  0  0  0  0  0
    5.1012    1.9370    0.0582 H   0  0  0  0  0  0  0  0  0  0  0  0
    2.5642    0.5567    2.8504 H   0  0  0  0  0  0  0  0  0  0  0  0
    0.9314   -0.0675    3.2351 H   0  0  0  0  0  0  0  0  0  0  0  0
    3.1621   -1.6012    1.7964 H   0  0  0  0  0  0  0  0  0  0  0  0
    2.6131   -1.8708    3.4568 H   0  0  0  0  0  0  0  0  0  0  0  0
    1.5333   -2.2274    2.0992 H   0  0  0  0  0  0  0  0  0  0  0  0
    0.3154   -2.5680   -1.9641 H   0  0  0  0  0  0  0  0  0  0  0  0
    0.0226   -0.7968   -1.8751 H   0  0  0  0  0  0  0  0  0  0  0  0
   -0.6443    2.3004    1.3614 H   0  0  0  0  0  0  0  0  0  0  0  0
   -1.5056    2.2724   -0.1944 H   0  0  0  0  0  0  0  0  0  0  0  0
   -3.6672    2.6379    0.9623 H   0  0  0  0  0  0  0  0  0  0  0  0
   -2.8529    2.6014    2.5371 H   0  0  0  0  0  0  0  0  0  0  0  0
   -2.5248    3.9165    1.3959 H   0  0  0  0  0  0  0  0  0  0  0  0
   -4.9395   -1.5460    1.5822 H   0  0  0  0  0  0  0  0  0  0  0  0
   -4.2153    0.0759    1.7756 H   0  0  0  0  0  0  0  0  0  0  0  0
   -4.8971    0.6527   -0.5563 H   0  0  0  0  0  0  0  0  0  0  0  0
   -5.6010   -0.9510   -0.7558 H   0  0  0  0  0  0  0  0  0  0  0  0
   -6.3077    0.1839    0.4086 H   0  0  0  0  0  0  0  0  0  0  0  0
  1  2  1  0  0  0  0
  2  3  1  0  0  0  0
  3  4  2  0  0  0  0
  4  5  2  0  0  0  0
  4  6  2  0  0  0  0
  6  7  1  0  0  0  0
  7  8  1  0  0  0  0
  4  9  1  0  0  0  0
  9 10  1  0  0  0  0
 10 11  1  0  0  0  0
 11 12  1  0  0  0  0
 12 13  2  0  0  0  0
 12 14  2  0  0  0  0
 14 15  1  0  0  0  0
 15 16  1  0  0  0  0
 12 17  2  0  0  0  0
 17 18  1  0  0  0  0
 18 19  1  0  0  0  0
  1 20  1  0  0  0  0
  1 21  1  0  0  0  0
  1 22  1  0  0  0  0
  2 23  1  0  0  0  0
  2 24  1  0  0  0  0
  7 25  1  0  0  0  0
  7 26  1  0  0  0  0
  8 27  1  0  0  0  0
  8 28  1  0  0  0  0
  8 29  1  0  0  0  0
 10 30  1  0  0  0  0
 10 31  1  0  0  0  0
 15 32  1  0  0  0  0
 15 33  1  0  0  0  0
 16 34  1  0  0  0  0
 16 35  1  0  0  0  0
 16 36  1  0  0  0  0
 18 37  1  0  0  0  0
 18 38  1  0  0  0  0
 19 39  1  0  0  0  0
 19 40  1  0  0  0  0
 19 41  1  0  0  0  0
M  END
