 xtb: 6.7.1 (edcfbbe)
          04092507313D

 38 37  0     0  0            999 V2000
    2.0210   -3.4426   -2.3671 C   0  0  0  0  0  0  0  0  0  0  0  0
    3.2090   -2.8921   -1.5943 C   0  0  0  0  0  0  0  0  0  0  0  0
    2.9063   -1.5907   -1.0582 O   0  0  0  0  0  0  0  0  0  0  0  0
    2.2733   -1.5194    0.0948 C   0  0  0  0  0  0  0  0  0  0  0  0
    1.9944   -2.4671    0.7933 O   0  0  0  0  0  0  0  0  0  0  0  0
    1.9309   -0.0817    0.4493 C   0  0  0  0  0  0  0  0  0  0  0  0
    1.1145    0.5502   -0.6822 C   0  0  0  0  0  0  0  0  0  0  0  0
    1.7505    0.7293   -1.5513 H   0  0  0  0  0  0  0  0  0  0  0  0
    0.4714    1.8397   -0.2180 C   0  0  0  0  0  0  0  0  0  0  0  0
   -0.7369    1.9568   -0.1109 O   0  0  0  0  0  0  0  0  0  0  0  0
    1.3354    2.7637    0.0670 O   0  0  0  0  0  0  0  0  0  0  0  0
    0.8410    4.0228    0.5837 C   0  0  0  0  0  0  0  0  0  0  0  0
    2.0391    4.8840    0.9265 C   0  0  0  0  0  0  0  0  0  0  0  0
   -0.2224   -0.5458   -1.2775 S   0  0  0  0  0  0  0  0  0  0  0  0
   -1.6606   -0.3127    0.2489 P   0  0  0  0  0  0  0  0  0  0  0  0
   -1.2832    0.1197    2.1360 S   0  0  0  0  0  0  0  0  0  0  0  0
   -2.9898    0.3524   -0.3392 O   0  0  0  0  0  0  0  0  0  0  0  0
   -3.4873    1.6545   -0.0313 C   0  0  0  0  0  0  0  0  0  0  0  0
   -2.0817   -1.8562    0.0823 O   0  0  0  0  0  0  0  0  0  0  0  0
   -3.1161   -2.4386    0.8777 C   0  0  0  0  0  0  0  0  0  0  0  0
    1.7269   -2.7475   -3.1485 H   0  0  0  0  0  0  0  0  0  0  0  0
    2.2886   -4.3959   -2.8102 H   0  0  0  0  0  0  0  0  0  0  0  0
    1.1748   -3.5864   -1.6984 H   0  0  0  0  0  0  0  0  0  0  0  0
    4.0665   -2.7253   -2.2459 H   0  0  0  0  0  0  0  0  0  0  0  0
    3.4772   -3.5578   -0.7690 H   0  0  0  0  0  0  0  0  0  0  0  0
    2.8498    0.4888    0.5886 H   0  0  0  0  0  0  0  0  0  0  0  0
    1.3648   -0.0940    1.3832 H   0  0  0  0  0  0  0  0  0  0  0  0
    0.2145    4.4831   -0.1852 H   0  0  0  0  0  0  0  0  0  0  0  0
    0.2208    3.8113    1.4597 H   0  0  0  0  0  0  0  0  0  0  0  0
    2.6410    4.4023    1.6907 H   0  0  0  0  0  0  0  0  0  0  0  0
    2.6500    5.0411    0.0431 H   0  0  0  0  0  0  0  0  0  0  0  0
    1.6933    5.8427    1.2980 H   0  0  0  0  0  0  0  0  0  0  0  0
   -4.5713    1.5770   -0.0780 H   0  0  0  0  0  0  0  0  0  0  0  0
   -3.1160    2.3676   -0.7639 H   0  0  0  0  0  0  0  0  0  0  0  0
   -3.1660    1.9522    0.9678 H   0  0  0  0  0  0  0  0  0  0  0  0
   -3.0221   -3.5131    0.7425 H   0  0  0  0  0  0  0  0  0  0  0  0
   -4.0908   -2.0909    0.5365 H   0  0  0  0  0  0  0  0  0  0  0  0
   -2.9747   -2.1753    1.9284 H   0  0  0  0  0  0  0  0  0  0  0  0
  1  2  1  0  0  0  0
  2  3  1  0  0  0  0
  3  4  1  0  0  0  0
  4  5  2  0  0  0  0
  4  6  1  0  0  0  0
  6  7  1  0  0  0  0
  7  8  1  0  0  0  0
  7  9  1  0  0  0  0
  9 10  2  0  0  0  0
  9 11  4  0  0  0  0
 11 12  1  0  0  0  0
 12 13  1  0  0  0  0
  7 14  1  0  0  0  0
 14 15  1  0  0  0  0
 15 16  2  0  0  0  0
 15 17  2  0  0  0  0
 17 18  1  0  0  0  0
 15 19  1  0  0  0  0
 19 20  1  0  0  0  0
  1 21  1  0  0  0  0
  1 22  1  0  0  0  0
  1 23  1  0  0  0  0
  2 24  1  0  0  0  0
  2 25  1  0  0  0  0
  6 26  1  0  0  0  0
  6 27  1  0  0  0  0
 12 28  1  0  0  0  0
 12 29  1  0  0  0  0
 13 30  1  0  0  0  0
 13 31  1  0  0  0  0
 13 32  1  0  0  0  0
 18 33  1  0  0  0  0
 18 34  1  0  0  0  0
 18 35  1  0  0  0  0
 20 36  1  0  0  0  0
 20 37  1  0  0  0  0
 20 38  1  0  0  0  0
M  END
