 xtb: 6.7.1 (edcfbbe)
          04032520413D

 11 11  0     0  0            999 V2000
   -1.6777    1.1770   -0.0001 C   0  0  0  0  0  0  0  0  0  0  0  0
   -2.3077   -0.0600    0.0000 C   0  0  0  0  0  0  0  0  0  0  0  0
   -1.5195   -1.1984   -0.0000 C   0  0  0  0  0  0  0  0  0  0  0  0
   -0.1935   -1.1626   -0.0000 N   0  0  0  0  0  0  0  0  0  0  0  0
    0.3837    0.0186   -0.0001 C   0  0  0  0  0  0  0  0  0  0  0  0
   -0.2934    1.2294   -0.0001 C   0  0  0  0  0  0  0  0  0  0  0  0
    2.1194    0.0095    0.0000 Cl  0  0  0  0  0  0  0  0  0  0  0  0
   -2.2527    2.0896    0.0004 H   0  0  0  0  0  0  0  0  0  0  0  0
   -3.3818   -0.1391    0.0007 H   0  0  0  0  0  0  0  0  0  0  0  0
   -1.9481   -2.1899    0.0006 H   0  0  0  0  0  0  0  0  0  0  0  0
    0.2463    2.1607    0.0013 H   0  0  0  0  0  0  0  0  0  0  0  0
  1  2  4  0  0  0  0
  2  3  4  0  0  0  0
  3  4  4  0  0  0  0
  4  5  4  0  0  0  0
  1  6  4  0  0  0  0
  5  6  4  0  0  0  0
  5  7  1  0  0  0  0
  1  8  1  0  0  0  0
  2  9  1  0  0  0  0
  3 10  1  0  0  0  0
  6 11  1  0  0  0  0
M  END
