 xtb: 6.7.1 (edcfbbe)
          04092505203D

 41 40  0     0  0            999 V2000
    1.6909   -3.0239   -1.1977 C   0  0  0  0  0  0  0  0  0  0  0  0
    2.0043   -1.7094   -1.8854 C   0  0  0  0  0  0  0  0  0  0  0  0
    2.8831   -0.8923   -1.0900 O   0  0  0  0  0  0  0  0  0  0  0  0
    2.3839    0.2120   -0.0601 P   0  0  0  0  0  0  0  0  0  0  0  0
    1.0955    1.5093   -0.7811 S   0  0  0  0  0  0  0  0  0  0  0  0
    3.7354    0.9151    0.3295 O   0  0  0  0  0  0  0  0  0  0  0  0
    5.0160    0.2463    0.4647 C   0  0  0  0  0  0  0  0  0  0  0  0
    5.0124   -0.7978    1.5600 C   0  0  0  0  0  0  0  0  0  0  0  0
    1.7366   -0.8333    1.6835 S   0  0  0  0  0  0  0  0  0  0  0  0
    0.0030   -0.3511    1.7492 C   0  0  0  0  0  0  0  0  0  0  0  0
   -0.9783   -0.9918    0.3511 S   0  0  0  0  0  0  0  0  0  0  0  0
   -2.2223    0.6919   -0.0364 P   0  0  0  0  0  0  0  0  0  0  0  0
   -2.0439    2.1865    1.2170 S   0  0  0  0  0  0  0  0  0  0  0  0
   -3.6815    0.0520   -0.0480 O   0  0  0  0  0  0  0  0  0  0  0  0
   -4.3121   -0.3968    1.1658 C   0  0  0  0  0  0  0  0  0  0  0  0
   -5.7963   -0.5407    0.8954 C   0  0  0  0  0  0  0  0  0  0  0  0
   -2.0741    1.1424   -1.5315 O   0  0  0  0  0  0  0  0  0  0  0  0
   -1.7795    0.3211   -2.6865 C   0  0  0  0  0  0  0  0  0  0  0  0
   -2.6015   -0.9470   -2.7474 C   0  0  0  0  0  0  0  0  0  0  0  0
    1.1446   -3.6590   -1.8872 H   0  0  0  0  0  0  0  0  0  0  0  0
    2.6123   -3.5201   -0.9069 H   0  0  0  0  0  0  0  0  0  0  0  0
    1.0789   -2.8616   -0.3135 H   0  0  0  0  0  0  0  0  0  0  0  0
    1.0909   -1.1453   -2.0977 H   0  0  0  0  0  0  0  0  0  0  0  0
    2.5548   -1.8696   -2.8144 H   0  0  0  0  0  0  0  0  0  0  0  0
    5.2700   -0.1961   -0.4999 H   0  0  0  0  0  0  0  0  0  0  0  0
    5.6992    1.0665    0.6903 H   0  0  0  0  0  0  0  0  0  0  0  0
    4.7042   -0.3581    2.5050 H   0  0  0  0  0  0  0  0  0  0  0  0
    4.3257   -1.6052    1.3116 H   0  0  0  0  0  0  0  0  0  0  0  0
    6.0137   -1.2041    1.6641 H   0  0  0  0  0  0  0  0  0  0  0  0
   -0.0916    0.7378    1.7538 H   0  0  0  0  0  0  0  0  0  0  0  0
   -0.3822   -0.7795    2.6715 H   0  0  0  0  0  0  0  0  0  0  0  0
   -3.8642   -1.3538    1.4482 H   0  0  0  0  0  0  0  0  0  0  0  0
   -4.1177    0.3394    1.9537 H   0  0  0  0  0  0  0  0  0  0  0  0
   -5.9608   -1.2588    0.0976 H   0  0  0  0  0  0  0  0  0  0  0  0
   -6.2911   -0.8841    1.7978 H   0  0  0  0  0  0  0  0  0  0  0  0
   -6.2146    0.4173    0.5993 H   0  0  0  0  0  0  0  0  0  0  0  0
   -1.9972    0.9871   -3.5231 H   0  0  0  0  0  0  0  0  0  0  0  0
   -0.7071    0.1076   -2.6675 H   0  0  0  0  0  0  0  0  0  0  0  0
   -2.3629   -1.5953   -1.9051 H   0  0  0  0  0  0  0  0  0  0  0  0
   -3.6609   -0.7063   -2.7195 H   0  0  0  0  0  0  0  0  0  0  0  0
   -2.3734   -1.4694   -3.6714 H   0  0  0  0  0  0  0  0  0  0  0  0
  1  2  1  0  0  0  0
  2  3  1  0  0  0  0
  3  4  2  0  0  0  0
  4  5  2  0  0  0  0
  4  6  2  0  0  0  0
  6  7  1  0  0  0  0
  7  8  1  0  0  0  0
  4  9  1  0  0  0  0
  9 10  1  0  0  0  0
 10 11  1  0  0  0  0
 11 12  1  0  0  0  0
 12 13  2  0  0  0  0
 12 14  2  0  0  0  0
 14 15  1  0  0  0  0
 15 16  1  0  0  0  0
 12 17  2  0  0  0  0
 17 18  1  0  0  0  0
 18 19  1  0  0  0  0
  1 20  1  0  0  0  0
  1 21  1  0  0  0  0
  1 22  1  0  0  0  0
  2 23  1  0  0  0  0
  2 24  1  0  0  0  0
  7 25  1  0  0  0  0
  7 26  1  0  0  0  0
  8 27  1  0  0  0  0
  8 28  1  0  0  0  0
  8 29  1  0  0  0  0
 10 30  1  0  0  0  0
 10 31  1  0  0  0  0
 15 32  1  0  0  0  0
 15 33  1  0  0  0  0
 16 34  1  0  0  0  0
 16 35  1  0  0  0  0
 16 36  1  0  0  0  0
 18 37  1  0  0  0  0
 18 38  1  0  0  0  0
 19 39  1  0  0  0  0
 19 40  1  0  0  0  0
 19 41  1  0  0  0  0
M  END
