 xtb: 6.7.1 (edcfbbe)
          04092505213D

 41 40  0     0  0            999 V2000
    4.6283    1.3908   -2.1799 C   0  0  0  0  0  0  0  0  0  0  0  0
    4.7104   -0.0185   -1.6324 C   0  0  0  0  0  0  0  0  0  0  0  0
    3.4076   -0.5931   -1.3864 O   0  0  0  0  0  0  0  0  0  0  0  0
    2.3185    0.0080   -0.4068 P   0  0  0  0  0  0  0  0  0  0  0  0
    1.2223    1.4725   -1.1303 S   0  0  0  0  0  0  0  0  0  0  0  0
    3.2034    0.3647    0.8587 O   0  0  0  0  0  0  0  0  0  0  0  0
    2.7173    1.0175    2.0454 C   0  0  0  0  0  0  0  0  0  0  0  0
    2.4430    0.0024    3.1359 C   0  0  0  0  0  0  0  0  0  0  0  0
    1.2703   -1.7690    0.0406 S   0  0  0  0  0  0  0  0  0  0  0  0
   -0.0890   -1.6143   -1.1702 C   0  0  0  0  0  0  0  0  0  0  0  0
   -1.7050   -1.9943   -0.4605 S   0  0  0  0  0  0  0  0  0  0  0  0
   -2.1166   -0.1530    0.4861 P   0  0  0  0  0  0  0  0  0  0  0  0
   -0.8824    0.5973    1.8020 S   0  0  0  0  0  0  0  0  0  0  0  0
   -3.5163   -0.4098    1.1816 O   0  0  0  0  0  0  0  0  0  0  0  0
   -4.5686   -1.2754    0.6962 C   0  0  0  0  0  0  0  0  0  0  0  0
   -5.1740   -0.7836   -0.6016 C   0  0  0  0  0  0  0  0  0  0  0  0
   -2.3326    0.7549   -0.8139 O   0  0  0  0  0  0  0  0  0  0  0  0
   -2.2393    2.1872   -0.7698 C   0  0  0  0  0  0  0  0  0  0  0  0
   -3.4273    2.7978   -0.0564 C   0  0  0  0  0  0  0  0  0  0  0  0
    4.0159    1.4136   -3.0783 H   0  0  0  0  0  0  0  0  0  0  0  0
    4.1797    2.0548   -1.4418 H   0  0  0  0  0  0  0  0  0  0  0  0
    5.6268    1.7454   -2.4153 H   0  0  0  0  0  0  0  0  0  0  0  0
    5.2759   -0.0436   -0.6987 H   0  0  0  0  0  0  0  0  0  0  0  0
    5.1540   -0.7045   -2.3559 H   0  0  0  0  0  0  0  0  0  0  0  0
    3.5175    1.7021    2.3329 H   0  0  0  0  0  0  0  0  0  0  0  0
    1.8144    1.5875    1.8055 H   0  0  0  0  0  0  0  0  0  0  0  0
    2.1761    0.5270    4.0474 H   0  0  0  0  0  0  0  0  0  0  0  0
    1.6130   -0.6410    2.8524 H   0  0  0  0  0  0  0  0  0  0  0  0
    3.3245   -0.6082    3.3095 H   0  0  0  0  0  0  0  0  0  0  0  0
    0.0685   -2.3452   -1.9587 H   0  0  0  0  0  0  0  0  0  0  0  0
   -0.0904   -0.5937   -1.5628 H   0  0  0  0  0  0  0  0  0  0  0  0
   -4.1589   -2.2818    0.5791 H   0  0  0  0  0  0  0  0  0  0  0  0
   -5.2957   -1.2646    1.5099 H   0  0  0  0  0  0  0  0  0  0  0  0
   -5.9823   -1.4492   -0.8880 H   0  0  0  0  0  0  0  0  0  0  0  0
   -5.5672    0.2220   -0.4777 H   0  0  0  0  0  0  0  0  0  0  0  0
   -4.4238   -0.7780   -1.3891 H   0  0  0  0  0  0  0  0  0  0  0  0
   -1.3029    2.4646   -0.2750 H   0  0  0  0  0  0  0  0  0  0  0  0
   -2.1898    2.4842   -1.8184 H   0  0  0  0  0  0  0  0  0  0  0  0
   -3.3262    3.8784   -0.0507 H   0  0  0  0  0  0  0  0  0  0  0  0
   -4.3514    2.5243   -0.5583 H   0  0  0  0  0  0  0  0  0  0  0  0
   -3.4593    2.4381    0.9722 H   0  0  0  0  0  0  0  0  0  0  0  0
  1  2  1  0  0  0  0
  2  3  1  0  0  0  0
  3  4  2  0  0  0  0
  4  5  2  0  0  0  0
  4  6  2  0  0  0  0
  6  7  1  0  0  0  0
  7  8  1  0  0  0  0
  4  9  1  0  0  0  0
  9 10  1  0  0  0  0
 10 11  1  0  0  0  0
 11 12  1  0  0  0  0
 12 13  2  0  0  0  0
 12 14  2  0  0  0  0
 14 15  1  0  0  0  0
 15 16  1  0  0  0  0
 12 17  1  0  0  0  0
 17 18  1  0  0  0  0
 18 19  1  0  0  0  0
  1 20  1  0  0  0  0
  1 21  1  0  0  0  0
  1 22  1  0  0  0  0
  2 23  1  0  0  0  0
  2 24  1  0  0  0  0
  7 25  1  0  0  0  0
  7 26  1  0  0  0  0
  8 27  1  0  0  0  0
  8 28  1  0  0  0  0
  8 29  1  0  0  0  0
 10 30  1  0  0  0  0
 10 31  1  0  0  0  0
 15 32  1  0  0  0  0
 15 33  1  0  0  0  0
 16 34  1  0  0  0  0
 16 35  1  0  0  0  0
 16 36  1  0  0  0  0
 18 37  1  0  0  0  0
 18 38  1  0  0  0  0
 19 39  1  0  0  0  0
 19 40  1  0  0  0  0
 19 41  1  0  0  0  0
M  END
