 xtb: 6.7.1 (edcfbbe)
          04092505203D

 41 40  0     0  0            999 V2000
    2.9150   -1.4036   -3.1945 C   0  0  0  0  0  0  0  0  0  0  0  0
    3.7467   -0.4855   -2.3224 C   0  0  0  0  0  0  0  0  0  0  0  0
    3.3717   -0.5911   -0.9416 O   0  0  0  0  0  0  0  0  0  0  0  0
    1.9565   -0.0797   -0.4057 P   0  0  0  0  0  0  0  0  0  0  0  0
    1.4676    1.6281   -1.2511 S   0  0  0  0  0  0  0  0  0  0  0  0
    2.2075   -0.0820    1.1565 O   0  0  0  0  0  0  0  0  0  0  0  0
    2.8982    1.0107    1.8027 C   0  0  0  0  0  0  0  0  0  0  0  0
    2.6374    0.9095    3.2904 C   0  0  0  0  0  0  0  0  0  0  0  0
    0.7783   -1.8280   -0.5594 S   0  0  0  0  0  0  0  0  0  0  0  0
   -0.1923   -1.8997    0.9843 C   0  0  0  0  0  0  0  0  0  0  0  0
   -1.9652   -1.6436    0.7339 S   0  0  0  0  0  0  0  0  0  0  0  0
   -1.8635    0.4527    0.4101 P   0  0  0  0  0  0  0  0  0  0  0  0
   -0.6813    1.4258    1.6241 S   0  0  0  0  0  0  0  0  0  0  0  0
   -3.3820    0.9210    0.4156 O   0  0  0  0  0  0  0  0  0  0  0  0
   -4.0884    1.2836    1.6171 C   0  0  0  0  0  0  0  0  0  0  0  0
   -4.2741    0.1097    2.5560 C   0  0  0  0  0  0  0  0  0  0  0  0
   -1.4840    0.6134   -1.1107 O   0  0  0  0  0  0  0  0  0  0  0  0
   -2.3214    0.0987   -2.1819 C   0  0  0  0  0  0  0  0  0  0  0  0
   -1.4251   -0.4611   -3.2666 C   0  0  0  0  0  0  0  0  0  0  0  0
    3.2618   -1.3446   -4.2209 H   0  0  0  0  0  0  0  0  0  0  0  0
    2.9868   -2.4294   -2.8425 H   0  0  0  0  0  0  0  0  0  0  0  0
    1.8705   -1.0926   -3.1538 H   0  0  0  0  0  0  0  0  0  0  0  0
    3.6248    0.5576   -2.6338 H   0  0  0  0  0  0  0  0  0  0  0  0
    4.8027   -0.7576   -2.3331 H   0  0  0  0  0  0  0  0  0  0  0  0
    3.9614    0.9193    1.5678 H   0  0  0  0  0  0  0  0  0  0  0  0
    2.5174    1.9529    1.3934 H   0  0  0  0  0  0  0  0  0  0  0  0
    1.5753    1.0354    3.4871 H   0  0  0  0  0  0  0  0  0  0  0  0
    2.9589   -0.0602    3.6590 H   0  0  0  0  0  0  0  0  0  0  0  0
    3.1884    1.6930    3.7998 H   0  0  0  0  0  0  0  0  0  0  0  0
    0.1881   -1.1531    1.6805 H   0  0  0  0  0  0  0  0  0  0  0  0
   -0.0804   -2.9068    1.3762 H   0  0  0  0  0  0  0  0  0  0  0  0
   -3.5359    2.0890    2.1107 H   0  0  0  0  0  0  0  0  0  0  0  0
   -5.0430    1.6611    1.2478 H   0  0  0  0  0  0  0  0  0  0  0  0
   -3.3135   -0.1951    2.9677 H   0  0  0  0  0  0  0  0  0  0  0  0
   -4.9269    0.4063    3.3706 H   0  0  0  0  0  0  0  0  0  0  0  0
   -4.7139   -0.7326    2.0280 H   0  0  0  0  0  0  0  0  0  0  0  0
   -2.9864   -0.6679   -1.7739 H   0  0  0  0  0  0  0  0  0  0  0  0
   -2.9129    0.9411   -2.5438 H   0  0  0  0  0  0  0  0  0  0  0  0
   -2.0315   -0.7302   -4.1251 H   0  0  0  0  0  0  0  0  0  0  0  0
   -0.6959    0.2903   -3.5609 H   0  0  0  0  0  0  0  0  0  0  0  0
   -0.8980   -1.3424   -2.9081 H   0  0  0  0  0  0  0  0  0  0  0  0
  1  2  1  0  0  0  0
  2  3  1  0  0  0  0
  3  4  2  0  0  0  0
  4  5  2  0  0  0  0
  4  6  2  0  0  0  0
  6  7  1  0  0  0  0
  7  8  1  0  0  0  0
  4  9  1  0  0  0  0
  9 10  1  0  0  0  0
 10 11  1  0  0  0  0
 11 12  1  0  0  0  0
 12 13  2  0  0  0  0
 12 14  2  0  0  0  0
 14 15  1  0  0  0  0
 15 16  1  0  0  0  0
 12 17  2  0  0  0  0
 17 18  1  0  0  0  0
 18 19  1  0  0  0  0
  1 20  1  0  0  0  0
  1 21  1  0  0  0  0
  1 22  1  0  0  0  0
  2 23  1  0  0  0  0
  2 24  1  0  0  0  0
  7 25  1  0  0  0  0
  7 26  1  0  0  0  0
  8 27  1  0  0  0  0
  8 28  1  0  0  0  0
  8 29  1  0  0  0  0
 10 30  1  0  0  0  0
 10 31  1  0  0  0  0
 15 32  1  0  0  0  0
 15 33  1  0  0  0  0
 16 34  1  0  0  0  0
 16 35  1  0  0  0  0
 16 36  1  0  0  0  0
 18 37  1  0  0  0  0
 18 38  1  0  0  0  0
 19 39  1  0  0  0  0
 19 40  1  0  0  0  0
 19 41  1  0  0  0  0
M  END
