 xtb: 6.7.1 (edcfbbe)
          04092507313D

 38 37  0     0  0            999 V2000
    3.7886   -2.2648    1.3742 C   0  0  0  0  0  0  0  0  0  0  0  0
    2.9617   -2.8665    0.2499 C   0  0  0  0  0  0  0  0  0  0  0  0
    2.8077   -1.9231   -0.8303 O   0  0  0  0  0  0  0  0  0  0  0  0
    1.8238   -1.0625   -0.7791 C   0  0  0  0  0  0  0  0  0  0  0  0
    1.0057   -1.0183    0.1268 O   0  0  0  0  0  0  0  0  0  0  0  0
    1.7893   -0.1391   -1.9677 C   0  0  0  0  0  0  0  0  0  0  0  0
    0.7011    0.9073   -1.8034 C   0  0  0  0  0  0  0  0  0  0  0  0
    0.6231    1.5368   -2.6932 H   0  0  0  0  0  0  0  0  0  0  0  0
    0.9039    1.8031   -0.5917 C   0  0  0  0  0  0  0  0  0  0  0  0
    1.8401    1.6947    0.1704 O   0  0  0  0  0  0  0  0  0  0  0  0
   -0.0382    2.7127   -0.5207 O   0  0  0  0  0  0  0  0  0  0  0  0
   -0.0556    3.6377    0.5835 C   0  0  0  0  0  0  0  0  0  0  0  0
   -1.4985    3.8632    0.9953 C   0  0  0  0  0  0  0  0  0  0  0  0
   -0.9747    0.1609   -1.7178 S   0  0  0  0  0  0  0  0  0  0  0  0
   -1.3456   -0.4653    0.2916 P   0  0  0  0  0  0  0  0  0  0  0  0
   -1.4243   -2.3795    0.7457 S   0  0  0  0  0  0  0  0  0  0  0  0
   -0.7206    0.5621    1.3339 O   0  0  0  0  0  0  0  0  0  0  0  0
    0.1122    0.1832    2.4286 C   0  0  0  0  0  0  0  0  0  0  0  0
   -2.8317    0.1553    0.4147 O   0  0  0  0  0  0  0  0  0  0  0  0
   -3.9182   -0.3730   -0.3429 C   0  0  0  0  0  0  0  0  0  0  0  0
    3.2816   -1.3953    1.7881 H   0  0  0  0  0  0  0  0  0  0  0  0
    3.9175   -3.0026    2.1589 H   0  0  0  0  0  0  0  0  0  0  0  0
    4.7625   -1.9603    1.0013 H   0  0  0  0  0  0  0  0  0  0  0  0
    1.9691   -3.1592    0.6054 H   0  0  0  0  0  0  0  0  0  0  0  0
    3.4665   -3.7181   -0.2057 H   0  0  0  0  0  0  0  0  0  0  0  0
    1.6090   -0.7312   -2.8665 H   0  0  0  0  0  0  0  0  0  0  0  0
    2.7672    0.3379   -2.0562 H   0  0  0  0  0  0  0  0  0  0  0  0
    0.5420    3.2196    1.3983 H   0  0  0  0  0  0  0  0  0  0  0  0
    0.4081    4.5631    0.2310 H   0  0  0  0  0  0  0  0  0  0  0  0
   -1.5308    4.5562    1.8293 H   0  0  0  0  0  0  0  0  0  0  0  0
   -2.0624    4.2718    0.1622 H   0  0  0  0  0  0  0  0  0  0  0  0
   -1.9514    2.9200    1.2928 H   0  0  0  0  0  0  0  0  0  0  0  0
    1.1324    0.5066    2.2176 H   0  0  0  0  0  0  0  0  0  0  0  0
    0.0882   -0.8985    2.5709 H   0  0  0  0  0  0  0  0  0  0  0  0
   -0.2805    0.6896    3.3080 H   0  0  0  0  0  0  0  0  0  0  0  0
   -4.8110    0.1070    0.0497 H   0  0  0  0  0  0  0  0  0  0  0  0
   -3.9765   -1.4553   -0.2091 H   0  0  0  0  0  0  0  0  0  0  0  0
   -3.7894   -0.1390   -1.4009 H   0  0  0  0  0  0  0  0  0  0  0  0
  1  2  1  0  0  0  0
  2  3  1  0  0  0  0
  3  4  4  0  0  0  0
  4  5  2  0  0  0  0
  4  6  1  0  0  0  0
  6  7  1  0  0  0  0
  7  8  1  0  0  0  0
  7  9  1  0  0  0  0
  9 10  2  0  0  0  0
  9 11  4  0  0  0  0
 11 12  1  0  0  0  0
 12 13  1  0  0  0  0
  7 14  1  0  0  0  0
 14 15  1  0  0  0  0
 15 16  2  0  0  0  0
 15 17  1  0  0  0  0
 17 18  1  0  0  0  0
 15 19  1  0  0  0  0
 19 20  1  0  0  0  0
  1 21  1  0  0  0  0
  1 22  1  0  0  0  0
  1 23  1  0  0  0  0
  2 24  1  0  0  0  0
  2 25  1  0  0  0  0
  6 26  1  0  0  0  0
  6 27  1  0  0  0  0
 12 28  1  0  0  0  0
 12 29  1  0  0  0  0
 13 30  1  0  0  0  0
 13 31  1  0  0  0  0
 13 32  1  0  0  0  0
 18 33  1  0  0  0  0
 18 34  1  0  0  0  0
 18 35  1  0  0  0  0
 20 36  1  0  0  0  0
 20 37  1  0  0  0  0
 20 38  1  0  0  0  0
M  END
