 xtb: 6.7.1 (edcfbbe)
          04092505203D

 41 40  0     0  0            999 V2000
    2.4970    0.3237   -3.1421 C   0  0  0  0  0  0  0  0  0  0  0  0
    3.5071    0.7270   -2.0868 C   0  0  0  0  0  0  0  0  0  0  0  0
    3.4300   -0.1130   -0.9245 O   0  0  0  0  0  0  0  0  0  0  0  0
    2.1900   -0.0898    0.0727 P   0  0  0  0  0  0  0  0  0  0  0  0
    1.5606    1.7334    0.4503 S   0  0  0  0  0  0  0  0  0  0  0  0
    2.7674   -0.8786    1.3142 O   0  0  0  0  0  0  0  0  0  0  0  0
    3.1281   -0.2688    2.5739 C   0  0  0  0  0  0  0  0  0  0  0  0
    2.2599   -0.8348    3.6802 C   0  0  0  0  0  0  0  0  0  0  0  0
    0.9571   -1.6140   -0.7281 S   0  0  0  0  0  0  0  0  0  0  0  0
   -0.0061   -2.0235    0.7572 C   0  0  0  0  0  0  0  0  0  0  0  0
   -0.8571   -0.6023    1.5020 S   0  0  0  0  0  0  0  0  0  0  0  0
   -1.9981    0.0489   -0.1553 P   0  0  0  0  0  0  0  0  0  0  0  0
   -1.2147    0.9536   -1.7160 S   0  0  0  0  0  0  0  0  0  0  0  0
   -3.1495    0.8934    0.5442 O   0  0  0  0  0  0  0  0  0  0  0  0
   -3.0521    2.3095    0.7605 C   0  0  0  0  0  0  0  0  0  0  0  0
   -2.0426    2.6443    1.8398 C   0  0  0  0  0  0  0  0  0  0  0  0
   -2.7101   -1.3297   -0.4693 O   0  0  0  0  0  0  0  0  0  0  0  0
   -3.3519   -1.5921   -1.7341 C   0  0  0  0  0  0  0  0  0  0  0  0
   -4.6264   -0.7900   -1.8901 C   0  0  0  0  0  0  0  0  0  0  0  0
    2.5937   -0.7342   -3.3737 H   0  0  0  0  0  0  0  0  0  0  0  0
    1.4837    0.5125   -2.7842 H   0  0  0  0  0  0  0  0  0  0  0  0
    2.6592    0.9083   -4.0419 H   0  0  0  0  0  0  0  0  0  0  0  0
    3.3462    1.7653   -1.7775 H   0  0  0  0  0  0  0  0  0  0  0  0
    4.5318    0.5975   -2.4376 H   0  0  0  0  0  0  0  0  0  0  0  0
    4.1820   -0.5065    2.7272 H   0  0  0  0  0  0  0  0  0  0  0  0
    3.0028    0.8158    2.4932 H   0  0  0  0  0  0  0  0  0  0  0  0
    2.5662   -0.4002    4.6260 H   0  0  0  0  0  0  0  0  0  0  0  0
    1.2145   -0.5906    3.4992 H   0  0  0  0  0  0  0  0  0  0  0  0
    2.3712   -1.9143    3.7305 H   0  0  0  0  0  0  0  0  0  0  0  0
    0.6577   -2.4152    1.5250 H   0  0  0  0  0  0  0  0  0  0  0  0
   -0.7367   -2.7677    0.4491 H   0  0  0  0  0  0  0  0  0  0  0  0
   -2.7778    2.7898   -0.1849 H   0  0  0  0  0  0  0  0  0  0  0  0
   -4.0628    2.6024    1.0480 H   0  0  0  0  0  0  0  0  0  0  0  0
   -1.0351    2.3979    1.5021 H   0  0  0  0  0  0  0  0  0  0  0  0
   -2.0825    3.7069    2.0567 H   0  0  0  0  0  0  0  0  0  0  0  0
   -2.2561    2.0806    2.7445 H   0  0  0  0  0  0  0  0  0  0  0  0
   -2.6451   -1.3573   -2.5366 H   0  0  0  0  0  0  0  0  0  0  0  0
   -3.5479   -2.6648   -1.7111 H   0  0  0  0  0  0  0  0  0  0  0  0
   -5.1323   -1.0903   -2.8022 H   0  0  0  0  0  0  0  0  0  0  0  0
   -5.2813   -0.9559   -1.0387 H   0  0  0  0  0  0  0  0  0  0  0  0
   -4.3893    0.2715   -1.9497 H   0  0  0  0  0  0  0  0  0  0  0  0
  1  2  1  0  0  0  0
  2  3  1  0  0  0  0
  3  4  2  0  0  0  0
  4  5  2  0  0  0  0
  4  6  2  0  0  0  0
  6  7  1  0  0  0  0
  7  8  1  0  0  0  0
  4  9  1  0  0  0  0
  9 10  1  0  0  0  0
 10 11  1  0  0  0  0
 11 12  1  0  0  0  0
 12 13  2  0  0  0  0
 12 14  2  0  0  0  0
 14 15  1  0  0  0  0
 15 16  1  0  0  0  0
 12 17  2  0  0  0  0
 17 18  1  0  0  0  0
 18 19  1  0  0  0  0
  1 20  1  0  0  0  0
  1 21  1  0  0  0  0
  1 22  1  0  0  0  0
  2 23  1  0  0  0  0
  2 24  1  0  0  0  0
  7 25  1  0  0  0  0
  7 26  1  0  0  0  0
  8 27  1  0  0  0  0
  8 28  1  0  0  0  0
  8 29  1  0  0  0  0
 10 30  1  0  0  0  0
 10 31  1  0  0  0  0
 15 32  1  0  0  0  0
 15 33  1  0  0  0  0
 16 34  1  0  0  0  0
 16 35  1  0  0  0  0
 16 36  1  0  0  0  0
 18 37  1  0  0  0  0
 18 38  1  0  0  0  0
 19 39  1  0  0  0  0
 19 40  1  0  0  0  0
 19 41  1  0  0  0  0
M  END
