 xtb: 6.7.1 (edcfbbe)
          04092505203D

 41 40  0     0  0            999 V2000
    3.9917   -1.9687   -1.6759 C   0  0  0  0  0  0  0  0  0  0  0  0
    4.6041   -0.6784   -1.1680 C   0  0  0  0  0  0  0  0  0  0  0  0
    3.8714   -0.1321   -0.0574 O   0  0  0  0  0  0  0  0  0  0  0  0
    2.3963    0.4163   -0.2140 P   0  0  0  0  0  0  0  0  0  0  0  0
    2.0019    1.3136   -1.9161 S   0  0  0  0  0  0  0  0  0  0  0  0
    2.4442    1.3066    1.0935 O   0  0  0  0  0  0  0  0  0  0  0  0
    1.3574    2.1437    1.5222 C   0  0  0  0  0  0  0  0  0  0  0  0
    1.8658    3.0041    2.6603 C   0  0  0  0  0  0  0  0  0  0  0  0
    1.1400   -1.2123    0.3169 S   0  0  0  0  0  0  0  0  0  0  0  0
    0.0911   -1.3556   -1.1779 C   0  0  0  0  0  0  0  0  0  0  0  0
   -1.6082   -1.7756   -0.7552 S   0  0  0  0  0  0  0  0  0  0  0  0
   -2.1140    0.0231    0.2636 P   0  0  0  0  0  0  0  0  0  0  0  0
   -1.4223    1.6853   -0.5119 S   0  0  0  0  0  0  0  0  0  0  0  0
   -1.6243   -0.1467    1.7541 O   0  0  0  0  0  0  0  0  0  0  0  0
   -1.6561   -1.3613    2.5463 C   0  0  0  0  0  0  0  0  0  0  0  0
   -3.0266   -1.9985    2.6000 C   0  0  0  0  0  0  0  0  0  0  0  0
   -3.6947   -0.0337    0.4004 O   0  0  0  0  0  0  0  0  0  0  0  0
   -4.5813    0.4832   -0.6063 C   0  0  0  0  0  0  0  0  0  0  0  0
   -4.5091   -0.3050   -1.8982 C   0  0  0  0  0  0  0  0  0  0  0  0
    3.8485   -2.6677   -0.8556 H   0  0  0  0  0  0  0  0  0  0  0  0
    3.0286   -1.7585   -2.1405 H   0  0  0  0  0  0  0  0  0  0  0  0
    4.6490   -2.4113   -2.4174 H   0  0  0  0  0  0  0  0  0  0  0  0
    4.6374    0.0709   -1.9652 H   0  0  0  0  0  0  0  0  0  0  0  0
    5.6052   -0.8367   -0.7649 H   0  0  0  0  0  0  0  0  0  0  0  0
    1.0188    2.7518    0.6762 H   0  0  0  0  0  0  0  0  0  0  0  0
    0.5247    1.5089    1.8441 H   0  0  0  0  0  0  0  0  0  0  0  0
    2.6888    3.6239    2.3162 H   0  0  0  0  0  0  0  0  0  0  0  0
    1.0594    3.6382    3.0136 H   0  0  0  0  0  0  0  0  0  0  0  0
    2.2149    2.3722    3.4717 H   0  0  0  0  0  0  0  0  0  0  0  0
    0.4570   -2.1724   -1.7950 H   0  0  0  0  0  0  0  0  0  0  0  0
    0.1253   -0.4021   -1.7134 H   0  0  0  0  0  0  0  0  0  0  0  0
   -0.9146   -2.0517    2.1331 H   0  0  0  0  0  0  0  0  0  0  0  0
   -1.3307   -1.0209    3.5305 H   0  0  0  0  0  0  0  0  0  0  0  0
   -2.9969   -2.8366    3.2895 H   0  0  0  0  0  0  0  0  0  0  0  0
   -3.7647   -1.2773    2.9408 H   0  0  0  0  0  0  0  0  0  0  0  0
   -3.3148   -2.3601    1.6152 H   0  0  0  0  0  0  0  0  0  0  0  0
   -5.5670    0.4106   -0.1446 H   0  0  0  0  0  0  0  0  0  0  0  0
   -4.3299    1.5339   -0.7827 H   0  0  0  0  0  0  0  0  0  0  0  0
   -4.6402   -1.3663   -1.7036 H   0  0  0  0  0  0  0  0  0  0  0  0
   -5.2891    0.0381   -2.5704 H   0  0  0  0  0  0  0  0  0  0  0  0
   -3.5426   -0.1509   -2.3757 H   0  0  0  0  0  0  0  0  0  0  0  0
  1  2  1  0  0  0  0
  2  3  1  0  0  0  0
  3  4  2  0  0  0  0
  4  5  2  0  0  0  0
  4  6  2  0  0  0  0
  6  7  1  0  0  0  0
  7  8  1  0  0  0  0
  4  9  1  0  0  0  0
  9 10  1  0  0  0  0
 10 11  1  0  0  0  0
 11 12  1  0  0  0  0
 12 13  2  0  0  0  0
 12 14  2  0  0  0  0
 14 15  1  0  0  0  0
 15 16  1  0  0  0  0
 12 17  2  0  0  0  0
 17 18  1  0  0  0  0
 18 19  1  0  0  0  0
  1 20  1  0  0  0  0
  1 21  1  0  0  0  0
  1 22  1  0  0  0  0
  2 23  1  0  0  0  0
  2 24  1  0  0  0  0
  7 25  1  0  0  0  0
  7 26  1  0  0  0  0
  8 27  1  0  0  0  0
  8 28  1  0  0  0  0
  8 29  1  0  0  0  0
 10 30  1  0  0  0  0
 10 31  1  0  0  0  0
 15 32  1  0  0  0  0
 15 33  1  0  0  0  0
 16 34  1  0  0  0  0
 16 35  1  0  0  0  0
 16 36  1  0  0  0  0
 18 37  1  0  0  0  0
 18 38  1  0  0  0  0
 19 39  1  0  0  0  0
 19 40  1  0  0  0  0
 19 41  1  0  0  0  0
M  END
