 xtb: 6.7.1 (edcfbbe)
          04032519423D

 20 20  0     0  0            999 V2000
    0.8672    1.3789   -0.5693 C   0  0  0  0  0  0  0  0  0  0  0  0
    1.5887    0.1341   -0.0415 C   0  0  0  0  0  0  0  0  0  0  0  0
    2.5331    0.0364   -0.5942 H   0  0  0  0  0  0  0  0  0  0  0  0
    0.7419   -1.1256   -0.3278 C   0  0  0  0  0  0  0  0  0  0  0  0
    1.1673   -1.9702    0.2353 H   0  0  0  0  0  0  0  0  0  0  0  0
   -0.7057   -0.9104    0.1716 C   0  0  0  0  0  0  0  0  0  0  0  0
   -1.3490   -1.7399   -0.1387 H   0  0  0  0  0  0  0  0  0  0  0  0
   -1.2488    0.3855   -0.4598 C   0  0  0  0  0  0  0  0  0  0  0  0
   -1.2038    0.2762   -1.5660 H   0  0  0  0  0  0  0  0  0  0  0  0
   -0.4534    1.4861   -0.0814 O   0  0  0  0  0  0  0  0  0  0  0  0
   -2.5446    0.6044   -0.0346 O   0  0  0  0  0  0  0  0  0  0  0  0
   -0.7598   -0.8825    1.5704 O   0  0  0  0  0  0  0  0  0  0  0  0
    0.8024   -1.3606   -1.7129 O   0  0  0  0  0  0  0  0  0  0  0  0
    1.8212    0.3143    1.3346 O   0  0  0  0  0  0  0  0  0  0  0  0
    0.8574    1.3392   -1.6661 H   0  0  0  0  0  0  0  0  0  0  0  0
    1.3776    2.2762   -0.2207 H   0  0  0  0  0  0  0  0  0  0  0  0
   -2.7584    1.5447   -0.1409 H   0  0  0  0  0  0  0  0  0  0  0  0
   -0.2923   -0.0874    1.8800 H   0  0  0  0  0  0  0  0  0  0  0  0
    0.4387   -2.2342   -1.9160 H   0  0  0  0  0  0  0  0  0  0  0  0
    2.4200   -0.3699    1.6652 H   0  0  0  0  0  0  0  0  0  0  0  0
  1  2  1  0  0  0  0
  2  3  1  0  0  0  0
  2  4  1  0  0  0  0
  4  5  1  0  0  0  0
  4  6  1  0  0  0  0
  6  7  1  0  0  0  0
  6  8  1  0  0  0  0
  8  9  1  0  0  0  0
  1 10  1  0  0  0  0
  8 10  1  0  0  0  0
  8 11  1  0  0  0  0
  6 12  1  0  0  0  0
  4 13  1  0  0  0  0
  2 14  1  0  0  0  0
  1 15  1  0  0  0  0
  1 16  1  0  0  0  0
 11 17  1  0  0  0  0
 12 18  1  0  0  0  0
 13 19  1  0  0  0  0
 14 20  1  0  0  0  0
M  END
