 xtb: 6.7.1 (edcfbbe)
          04092505213D

 41 40  0     0  0            999 V2000
    2.0299    2.0639   -2.3510 C   0  0  0  0  0  0  0  0  0  0  0  0
    1.7871    0.6147   -1.9840 C   0  0  0  0  0  0  0  0  0  0  0  0
    1.1714    0.5111   -0.6764 O   0  0  0  0  0  0  0  0  0  0  0  0
    2.0789    0.1557    0.5870 P   0  0  0  0  0  0  0  0  0  0  0  0
    3.6807    1.2560    0.8306 S   0  0  0  0  0  0  0  0  0  0  0  0
    2.3938   -1.3861    0.3224 O   0  0  0  0  0  0  0  0  0  0  0  0
    3.4860   -2.0624    0.9685 C   0  0  0  0  0  0  0  0  0  0  0  0
    3.1279   -2.4738    2.3825 C   0  0  0  0  0  0  0  0  0  0  0  0
    0.7005    0.3062    2.1543 S   0  0  0  0  0  0  0  0  0  0  0  0
   -0.4585   -1.1025    1.8978 C   0  0  0  0  0  0  0  0  0  0  0  0
   -0.6501   -1.6675    0.1963 S   0  0  0  0  0  0  0  0  0  0  0  0
   -1.8333   -0.0899   -0.5803 P   0  0  0  0  0  0  0  0  0  0  0  0
   -1.7533    0.1435   -2.5227 S   0  0  0  0  0  0  0  0  0  0  0  0
   -1.4366    1.1502    0.3160 O   0  0  0  0  0  0  0  0  0  0  0  0
   -1.5072    2.4972   -0.1817 C   0  0  0  0  0  0  0  0  0  0  0  0
   -2.9398    2.9835   -0.2263 C   0  0  0  0  0  0  0  0  0  0  0  0
   -3.2770   -0.3958    0.0370 O   0  0  0  0  0  0  0  0  0  0  0  0
   -4.0615   -1.5232   -0.3905 C   0  0  0  0  0  0  0  0  0  0  0  0
   -5.0217   -1.1327   -1.4977 C   0  0  0  0  0  0  0  0  0  0  0  0
    2.4780    2.1065   -3.3386 H   0  0  0  0  0  0  0  0  0  0  0  0
    1.0913    2.6116   -2.3625 H   0  0  0  0  0  0  0  0  0  0  0  0
    2.7025    2.5275   -1.6323 H   0  0  0  0  0  0  0  0  0  0  0  0
    2.7213    0.0471   -1.9815 H   0  0  0  0  0  0  0  0  0  0  0  0
    1.0769    0.1447   -2.6683 H   0  0  0  0  0  0  0  0  0  0  0  0
    3.6761   -2.9280    0.3326 H   0  0  0  0  0  0  0  0  0  0  0  0
    4.3567   -1.3976    0.9654 H   0  0  0  0  0  0  0  0  0  0  0  0
    2.2492   -3.1132    2.3762 H   0  0  0  0  0  0  0  0  0  0  0  0
    3.9611   -3.0168    2.8170 H   0  0  0  0  0  0  0  0  0  0  0  0
    2.9288   -1.5909    2.9888 H   0  0  0  0  0  0  0  0  0  0  0  0
   -1.4138   -0.7584    2.2880 H   0  0  0  0  0  0  0  0  0  0  0  0
   -0.0871   -1.9570    2.4578 H   0  0  0  0  0  0  0  0  0  0  0  0
   -0.8967    3.0728    0.5164 H   0  0  0  0  0  0  0  0  0  0  0  0
   -1.0560    2.5271   -1.1790 H   0  0  0  0  0  0  0  0  0  0  0  0
   -2.9588    4.0237   -0.5357 H   0  0  0  0  0  0  0  0  0  0  0  0
   -3.5043    2.3877   -0.9426 H   0  0  0  0  0  0  0  0  0  0  0  0
   -3.3991    2.8864    0.7536 H   0  0  0  0  0  0  0  0  0  0  0  0
   -3.3905   -2.3248   -0.7178 H   0  0  0  0  0  0  0  0  0  0  0  0
   -4.6000   -1.8419    0.5041 H   0  0  0  0  0  0  0  0  0  0  0  0
   -5.6630   -0.3207   -1.1665 H   0  0  0  0  0  0  0  0  0  0  0  0
   -4.4716   -0.8084   -2.3785 H   0  0  0  0  0  0  0  0  0  0  0  0
   -5.6337   -1.9897   -1.7596 H   0  0  0  0  0  0  0  0  0  0  0  0
  1  2  1  0  0  0  0
  2  3  1  0  0  0  0
  3  4  1  0  0  0  0
  4  5  2  0  0  0  0
  4  6  2  0  0  0  0
  6  7  1  0  0  0  0
  7  8  1  0  0  0  0
  4  9  1  0  0  0  0
  9 10  1  0  0  0  0
 10 11  1  0  0  0  0
 11 12  1  0  0  0  0
 12 13  2  0  0  0  0
 12 14  2  0  0  0  0
 14 15  1  0  0  0  0
 15 16  1  0  0  0  0
 12 17  1  0  0  0  0
 17 18  1  0  0  0  0
 18 19  1  0  0  0  0
  1 20  1  0  0  0  0
  1 21  1  0  0  0  0
  1 22  1  0  0  0  0
  2 23  1  0  0  0  0
  2 24  1  0  0  0  0
  7 25  1  0  0  0  0
  7 26  1  0  0  0  0
  8 27  1  0  0  0  0
  8 28  1  0  0  0  0
  8 29  1  0  0  0  0
 10 30  1  0  0  0  0
 10 31  1  0  0  0  0
 15 32  1  0  0  0  0
 15 33  1  0  0  0  0
 16 34  1  0  0  0  0
 16 35  1  0  0  0  0
 16 36  1  0  0  0  0
 18 37  1  0  0  0  0
 18 38  1  0  0  0  0
 19 39  1  0  0  0  0
 19 40  1  0  0  0  0
 19 41  1  0  0  0  0
M  END
