 xtb: 6.7.1 (edcfbbe)
          04092507313D

 38 37  0     0  0            999 V2000
    2.8183   -3.4853    0.7912 C   0  0  0  0  0  0  0  0  0  0  0  0
    3.3236   -2.0529    0.8439 C   0  0  0  0  0  0  0  0  0  0  0  0
    3.0439   -1.3636   -0.3914 O   0  0  0  0  0  0  0  0  0  0  0  0
    1.9063   -0.7350   -0.5312 C   0  0  0  0  0  0  0  0  0  0  0  0
    1.0522   -0.6520    0.3389 O   0  0  0  0  0  0  0  0  0  0  0  0
    1.7482   -0.0962   -1.8858 C   0  0  0  0  0  0  0  0  0  0  0  0
    0.6085    0.9075   -1.8478 C   0  0  0  0  0  0  0  0  0  0  0  0
    0.5120    1.4226   -2.8081 H   0  0  0  0  0  0  0  0  0  0  0  0
    0.8015    1.9650   -0.7697 C   0  0  0  0  0  0  0  0  0  0  0  0
    1.8182    2.0689   -0.1203 O   0  0  0  0  0  0  0  0  0  0  0  0
   -0.2314    2.7736   -0.6985 O   0  0  0  0  0  0  0  0  0  0  0  0
   -0.1413    3.9472    0.1364 C   0  0  0  0  0  0  0  0  0  0  0  0
   -0.4143    3.6475    1.6001 C   0  0  0  0  0  0  0  0  0  0  0  0
   -1.0416    0.1189   -1.7076 S   0  0  0  0  0  0  0  0  0  0  0  0
   -1.3823   -0.7544    0.1949 P   0  0  0  0  0  0  0  0  0  0  0  0
   -0.9643   -2.6128    0.6563 S   0  0  0  0  0  0  0  0  0  0  0  0
   -1.1869    0.3831    1.3145 O   0  0  0  0  0  0  0  0  0  0  0  0
   -0.4335    0.1871    2.5095 C   0  0  0  0  0  0  0  0  0  0  0  0
   -2.9850   -0.7732    0.0605 O   0  0  0  0  0  0  0  0  0  0  0  0
   -3.8000    0.3945   -0.1272 C   0  0  0  0  0  0  0  0  0  0  0  0
    1.7321   -3.5034    0.7142 H   0  0  0  0  0  0  0  0  0  0  0  0
    3.2420   -4.0006   -0.0660 H   0  0  0  0  0  0  0  0  0  0  0  0
    3.1102   -4.0007    1.7000 H   0  0  0  0  0  0  0  0  0  0  0  0
    4.4097   -2.0161    0.9312 H   0  0  0  0  0  0  0  0  0  0  0  0
    2.8549   -1.5055    1.6660 H   0  0  0  0  0  0  0  0  0  0  0  0
    1.5396   -0.8754   -2.6214 H   0  0  0  0  0  0  0  0  0  0  0  0
    2.6871    0.3916   -2.1506 H   0  0  0  0  0  0  0  0  0  0  0  0
    0.8578    4.3755    0.0150 H   0  0  0  0  0  0  0  0  0  0  0  0
   -0.8969    4.6140   -0.2794 H   0  0  0  0  0  0  0  0  0  0  0  0
   -1.3542    3.1126    1.7064 H   0  0  0  0  0  0  0  0  0  0  0  0
    0.3854    3.0402    2.0162 H   0  0  0  0  0  0  0  0  0  0  0  0
   -0.4690    4.5816    2.1494 H   0  0  0  0  0  0  0  0  0  0  0  0
    0.5559    0.6263    2.3866 H   0  0  0  0  0  0  0  0  0  0  0  0
   -0.3310   -0.8786    2.7217 H   0  0  0  0  0  0  0  0  0  0  0  0
   -0.9840    0.6834    3.3057 H   0  0  0  0  0  0  0  0  0  0  0  0
   -3.3865    1.2401    0.4202 H   0  0  0  0  0  0  0  0  0  0  0  0
   -4.7794    0.1295    0.2640 H   0  0  0  0  0  0  0  0  0  0  0  0
   -3.8621    0.6280   -1.1891 H   0  0  0  0  0  0  0  0  0  0  0  0
  1  2  1  0  0  0  0
  2  3  1  0  0  0  0
  3  4  4  0  0  0  0
  4  5  2  0  0  0  0
  4  6  1  0  0  0  0
  6  7  1  0  0  0  0
  7  8  1  0  0  0  0
  7  9  1  0  0  0  0
  9 10  2  0  0  0  0
  9 11  4  0  0  0  0
 11 12  1  0  0  0  0
 12 13  1  0  0  0  0
  7 14  1  0  0  0  0
 14 15  1  0  0  0  0
 15 16  2  0  0  0  0
 15 17  1  0  0  0  0
 17 18  1  0  0  0  0
 15 19  1  0  0  0  0
 19 20  1  0  0  0  0
  1 21  1  0  0  0  0
  1 22  1  0  0  0  0
  1 23  1  0  0  0  0
  2 24  1  0  0  0  0
  2 25  1  0  0  0  0
  6 26  1  0  0  0  0
  6 27  1  0  0  0  0
 12 28  1  0  0  0  0
 12 29  1  0  0  0  0
 13 30  1  0  0  0  0
 13 31  1  0  0  0  0
 13 32  1  0  0  0  0
 18 33  1  0  0  0  0
 18 34  1  0  0  0  0
 18 35  1  0  0  0  0
 20 36  1  0  0  0  0
 20 37  1  0  0  0  0
 20 38  1  0  0  0  0
M  END
