 xtb: 6.7.1 (edcfbbe)
          04092505213D

 41 40  0     0  0            999 V2000
    6.0294   -1.1997    0.2564 C   0  0  0  0  0  0  0  0  0  0  0  0
    4.5889   -1.4241   -0.1557 C   0  0  0  0  0  0  0  0  0  0  0  0
    3.8818   -0.1763    0.0094 O   0  0  0  0  0  0  0  0  0  0  0  0
    2.4660    0.0569   -0.6696 P   0  0  0  0  0  0  0  0  0  0  0  0
    2.3722   -0.2618   -2.5962 S   0  0  0  0  0  0  0  0  0  0  0  0
    2.1296    1.5469   -0.2985 O   0  0  0  0  0  0  0  0  0  0  0  0
    2.1606    2.0697    1.0536 C   0  0  0  0  0  0  0  0  0  0  0  0
    3.4801    2.7590    1.3308 C   0  0  0  0  0  0  0  0  0  0  0  0
    1.1835   -1.1794    0.5059 S   0  0  0  0  0  0  0  0  0  0  0  0
   -0.2124   -1.1381   -0.6374 C   0  0  0  0  0  0  0  0  0  0  0  0
   -1.0125    0.4995   -0.6972 S   0  0  0  0  0  0  0  0  0  0  0  0
   -2.7983   -0.0142    0.3555 P   0  0  0  0  0  0  0  0  0  0  0  0
   -3.9684    1.5080    0.7315 S   0  0  0  0  0  0  0  0  0  0  0  0
   -2.3606   -0.8922    1.5961 O   0  0  0  0  0  0  0  0  0  0  0  0
   -2.2370   -0.3209    2.9117 C   0  0  0  0  0  0  0  0  0  0  0  0
   -0.9714    0.5015    3.0454 C   0  0  0  0  0  0  0  0  0  0  0  0
   -3.3803   -1.2231   -0.4978 O   0  0  0  0  0  0  0  0  0  0  0  0
   -3.9312   -1.0080   -1.8113 C   0  0  0  0  0  0  0  0  0  0  0  0
   -5.4311   -0.7972   -1.7416 C   0  0  0  0  0  0  0  0  0  0  0  0
    6.0752   -0.8786    1.2929 H   0  0  0  0  0  0  0  0  0  0  0  0
    6.5797   -2.1280    0.1439 H   0  0  0  0  0  0  0  0  0  0  0  0
    6.4828   -0.4371   -0.3707 H   0  0  0  0  0  0  0  0  0  0  0  0
    4.1043   -2.1752    0.4736 H   0  0  0  0  0  0  0  0  0  0  0  0
    4.5134   -1.7304   -1.2041 H   0  0  0  0  0  0  0  0  0  0  0  0
    1.3254    2.7718    1.0912 H   0  0  0  0  0  0  0  0  0  0  0  0
    1.9880    1.2496    1.7559 H   0  0  0  0  0  0  0  0  0  0  0  0
    4.2966    2.0440    1.2760 H   0  0  0  0  0  0  0  0  0  0  0  0
    3.6514    3.5435    0.5989 H   0  0  0  0  0  0  0  0  0  0  0  0
    3.4494    3.1956    2.3241 H   0  0  0  0  0  0  0  0  0  0  0  0
   -0.9311   -1.8819   -0.3015 H   0  0  0  0  0  0  0  0  0  0  0  0
    0.1565   -1.3538   -1.6409 H   0  0  0  0  0  0  0  0  0  0  0  0
   -3.1207    0.2946    3.1096 H   0  0  0  0  0  0  0  0  0  0  0  0
   -2.2286   -1.1861    3.5756 H   0  0  0  0  0  0  0  0  0  0  0  0
   -0.1020   -0.1096    2.8154 H   0  0  0  0  0  0  0  0  0  0  0  0
   -1.0092    1.3463    2.3576 H   0  0  0  0  0  0  0  0  0  0  0  0
   -0.8912    0.8768    4.0603 H   0  0  0  0  0  0  0  0  0  0  0  0
   -3.4362   -0.1488   -2.2779 H   0  0  0  0  0  0  0  0  0  0  0  0
   -3.6852   -1.9143   -2.3686 H   0  0  0  0  0  0  0  0  0  0  0  0
   -5.9019   -1.6416   -1.2464 H   0  0  0  0  0  0  0  0  0  0  0  0
   -5.6592    0.1078   -1.1827 H   0  0  0  0  0  0  0  0  0  0  0  0
   -5.8269   -0.7018   -2.7477 H   0  0  0  0  0  0  0  0  0  0  0  0
  1  2  1  0  0  0  0
  2  3  1  0  0  0  0
  3  4  2  0  0  0  0
  4  5  2  0  0  0  0
  4  6  2  0  0  0  0
  6  7  1  0  0  0  0
  7  8  1  0  0  0  0
  4  9  1  0  0  0  0
  9 10  1  0  0  0  0
 10 11  1  0  0  0  0
 11 12  1  0  0  0  0
 12 13  2  0  0  0  0
 12 14  2  0  0  0  0
 14 15  1  0  0  0  0
 15 16  1  0  0  0  0
 12 17  2  0  0  0  0
 17 18  1  0  0  0  0
 18 19  1  0  0  0  0
  1 20  1  0  0  0  0
  1 21  1  0  0  0  0
  1 22  1  0  0  0  0
  2 23  1  0  0  0  0
  2 24  1  0  0  0  0
  7 25  1  0  0  0  0
  7 26  1  0  0  0  0
  8 27  1  0  0  0  0
  8 28  1  0  0  0  0
  8 29  1  0  0  0  0
 10 30  1  0  0  0  0
 10 31  1  0  0  0  0
 15 32  1  0  0  0  0
 15 33  1  0  0  0  0
 16 34  1  0  0  0  0
 16 35  1  0  0  0  0
 16 36  1  0  0  0  0
 18 37  1  0  0  0  0
 18 38  1  0  0  0  0
 19 39  1  0  0  0  0
 19 40  1  0  0  0  0
 19 41  1  0  0  0  0
M  END
