 xtb: 6.7.1 (edcfbbe)
          04092505203D

 41 40  0     0  0            999 V2000
    5.1337   -0.0818   -1.4507 C   0  0  0  0  0  0  0  0  0  0  0  0
    4.4833    1.0319   -0.6544 C   0  0  0  0  0  0  0  0  0  0  0  0
    3.5483    0.5156    0.3118 O   0  0  0  0  0  0  0  0  0  0  0  0
    2.0100    0.2927   -0.0131 P   0  0  0  0  0  0  0  0  0  0  0  0
    1.1347    1.7824   -0.9314 S   0  0  0  0  0  0  0  0  0  0  0  0
    1.3907    0.0202    1.4079 O   0  0  0  0  0  0  0  0  0  0  0  0
    1.8230   -1.0407    2.2984 C   0  0  0  0  0  0  0  0  0  0  0  0
    2.8553   -0.5331    3.2829 C   0  0  0  0  0  0  0  0  0  0  0  0
    1.9693   -1.5632   -1.0489 S   0  0  0  0  0  0  0  0  0  0  0  0
    0.2189   -1.5659   -1.4870 C   0  0  0  0  0  0  0  0  0  0  0  0
   -0.8751   -1.8037   -0.0442 S   0  0  0  0  0  0  0  0  0  0  0  0
   -2.0087   -0.0330   -0.1038 P   0  0  0  0  0  0  0  0  0  0  0  0
   -2.2461    0.7989   -1.8676 S   0  0  0  0  0  0  0  0  0  0  0  0
   -1.3671    0.8293    1.0546 O   0  0  0  0  0  0  0  0  0  0  0  0
   -1.5976    2.2461    1.1840 C   0  0  0  0  0  0  0  0  0  0  0  0
   -3.0446    2.5574    1.4981 C   0  0  0  0  0  0  0  0  0  0  0  0
   -3.3638   -0.5003    0.5846 O   0  0  0  0  0  0  0  0  0  0  0  0
   -4.3464   -1.2711   -0.1349 C   0  0  0  0  0  0  0  0  0  0  0  0
   -5.6579   -1.1768    0.6183 C   0  0  0  0  0  0  0  0  0  0  0  0
    5.5864   -0.8056   -0.7791 H   0  0  0  0  0  0  0  0  0  0  0  0
    4.3992   -0.5914   -2.0698 H   0  0  0  0  0  0  0  0  0  0  0  0
    5.9010    0.3435   -2.0895 H   0  0  0  0  0  0  0  0  0  0  0  0
    3.9592    1.7372   -1.3076 H   0  0  0  0  0  0  0  0  0  0  0  0
    5.2187    1.5713   -0.0548 H   0  0  0  0  0  0  0  0  0  0  0  0
    0.9066   -1.3563    2.8013 H   0  0  0  0  0  0  0  0  0  0  0  0
    2.2169   -1.8672    1.7003 H   0  0  0  0  0  0  0  0  0  0  0  0
    3.7545   -0.2207    2.7592 H   0  0  0  0  0  0  0  0  0  0  0  0
    2.4594    0.3139    3.8365 H   0  0  0  0  0  0  0  0  0  0  0  0
    3.1021   -1.3310    3.9763 H   0  0  0  0  0  0  0  0  0  0  0  0
    0.0766   -2.4092   -2.1577 H   0  0  0  0  0  0  0  0  0  0  0  0
   -0.0474   -0.6243   -1.9758 H   0  0  0  0  0  0  0  0  0  0  0  0
   -0.9268    2.5419    1.9922 H   0  0  0  0  0  0  0  0  0  0  0  0
   -1.2822    2.7342    0.2554 H   0  0  0  0  0  0  0  0  0  0  0  0
   -3.1491    3.6215    1.6854 H   0  0  0  0  0  0  0  0  0  0  0  0
   -3.6719    2.2835    0.6505 H   0  0  0  0  0  0  0  0  0  0  0  0
   -3.3671    1.9980    2.3724 H   0  0  0  0  0  0  0  0  0  0  0  0
   -4.4327   -0.8648   -1.1485 H   0  0  0  0  0  0  0  0  0  0  0  0
   -3.9929   -2.3042   -0.1930 H   0  0  0  0  0  0  0  0  0  0  0  0
   -5.5284   -1.5433    1.6323 H   0  0  0  0  0  0  0  0  0  0  0  0
   -5.9956   -0.1450    0.6567 H   0  0  0  0  0  0  0  0  0  0  0  0
   -6.4034   -1.7787    0.1094 H   0  0  0  0  0  0  0  0  0  0  0  0
  1  2  1  0  0  0  0
  2  3  1  0  0  0  0
  3  4  2  0  0  0  0
  4  5  2  0  0  0  0
  4  6  2  0  0  0  0
  6  7  1  0  0  0  0
  7  8  1  0  0  0  0
  4  9  1  0  0  0  0
  9 10  1  0  0  0  0
 10 11  1  0  0  0  0
 11 12  1  0  0  0  0
 12 13  2  0  0  0  0
 12 14  2  0  0  0  0
 14 15  1  0  0  0  0
 15 16  1  0  0  0  0
 12 17  2  0  0  0  0
 17 18  1  0  0  0  0
 18 19  1  0  0  0  0
  1 20  1  0  0  0  0
  1 21  1  0  0  0  0
  1 22  1  0  0  0  0
  2 23  1  0  0  0  0
  2 24  1  0  0  0  0
  7 25  1  0  0  0  0
  7 26  1  0  0  0  0
  8 27  1  0  0  0  0
  8 28  1  0  0  0  0
  8 29  1  0  0  0  0
 10 30  1  0  0  0  0
 10 31  1  0  0  0  0
 15 32  1  0  0  0  0
 15 33  1  0  0  0  0
 16 34  1  0  0  0  0
 16 35  1  0  0  0  0
 16 36  1  0  0  0  0
 18 37  1  0  0  0  0
 18 38  1  0  0  0  0
 19 39  1  0  0  0  0
 19 40  1  0  0  0  0
 19 41  1  0  0  0  0
M  END
