 xtb: 6.7.1 (edcfbbe)
          04032520063D

 19 19  0     0  0            999 V2000
    1.9321    0.0004   -0.7854 C   0  0  0  0  0  0  0  0  0  0  0  0
    1.1127   -0.0002    0.4217 N   0  0  0  0  0  0  0  0  0  0  0  0
    0.2940    1.1918    0.5914 C   0  0  0  0  0  0  0  0  0  0  0  0
   -0.9500    1.1947   -0.3129 C   0  0  0  0  0  0  0  0  0  0  0  0
   -1.7655    0.0001   -0.1299 N   0  0  0  0  0  0  0  0  0  0  0  0
   -0.9505   -1.1947   -0.3127 C   0  0  0  0  0  0  0  0  0  0  0  0
    0.2937   -1.1921    0.5912 C   0  0  0  0  0  0  0  0  0  0  0  0
    2.9854    0.0101   -0.4932 H   0  0  0  0  0  0  0  0  0  0  0  0
    1.7420    0.8774   -1.4048 H   0  0  0  0  0  0  0  0  0  0  0  0
    1.7553   -0.8858   -1.3952 H   0  0  0  0  0  0  0  0  0  0  0  0
   -0.0255    1.2165    1.6396 H   0  0  0  0  0  0  0  0  0  0  0  0
    0.9113    2.0712    0.4031 H   0  0  0  0  0  0  0  0  0  0  0  0
   -1.5661    2.0719   -0.1084 H   0  0  0  0  0  0  0  0  0  0  0  0
   -0.6469    1.2223   -1.3643 H   0  0  0  0  0  0  0  0  0  0  0  0
   -2.1340    0.0003    0.8184 H   0  0  0  0  0  0  0  0  0  0  0  0
   -1.5669   -2.0716   -0.1074 H   0  0  0  0  0  0  0  0  0  0  0  0
   -0.6478   -1.2230   -1.3642 H   0  0  0  0  0  0  0  0  0  0  0  0
   -0.0253   -1.2170    1.6395 H   0  0  0  0  0  0  0  0  0  0  0  0
    0.9107   -2.0717    0.4026 H   0  0  0  0  0  0  0  0  0  0  0  0
  1  2  1  0  0  0  0
  2  3  1  0  0  0  0
  3  4  1  0  0  0  0
  4  5  1  0  0  0  0
  5  6  1  0  0  0  0
  2  7  1  0  0  0  0
  6  7  1  0  0  0  0
  1  8  1  0  0  0  0
  1  9  1  0  0  0  0
  1 10  1  0  0  0  0
  3 11  1  0  0  0  0
  3 12  1  0  0  0  0
  4 13  1  0  0  0  0
  4 14  1  0  0  0  0
  5 15  1  0  0  0  0
  6 16  1  0  0  0  0
  6 17  1  0  0  0  0
  7 18  1  0  0  0  0
  7 19  1  0  0  0  0
M  END
