 xtb: 6.7.1 (edcfbbe)
          04092507313D

 38 37  0     0  0            999 V2000
    3.7395   -3.3535   -0.3263 C   0  0  0  0  0  0  0  0  0  0  0  0
    3.1382   -2.1082    0.3044 C   0  0  0  0  0  0  0  0  0  0  0  0
    2.7814   -1.1311   -0.6921 O   0  0  0  0  0  0  0  0  0  0  0  0
    1.6496   -1.2964   -1.3563 C   0  0  0  0  0  0  0  0  0  0  0  0
    0.8859   -2.2198   -1.1894 O   0  0  0  0  0  0  0  0  0  0  0  0
    1.3993   -0.1384   -2.3032 C   0  0  0  0  0  0  0  0  0  0  0  0
    0.4487    0.8525   -1.6076 C   0  0  0  0  0  0  0  0  0  0  0  0
    0.4029    1.7912   -2.1602 H   0  0  0  0  0  0  0  0  0  0  0  0
    0.9709    1.0735   -0.2057 C   0  0  0  0  0  0  0  0  0  0  0  0
    0.5719    0.4179    0.7415 O   0  0  0  0  0  0  0  0  0  0  0  0
    1.9104    1.9694   -0.1667 O   0  0  0  0  0  0  0  0  0  0  0  0
    2.5224    2.2860    1.1039 C   0  0  0  0  0  0  0  0  0  0  0  0
    1.7788    3.4286    1.7746 C   0  0  0  0  0  0  0  0  0  0  0  0
   -1.2476    0.1802   -1.5206 S   0  0  0  0  0  0  0  0  0  0  0  0
   -1.8121    0.0669    0.5338 P   0  0  0  0  0  0  0  0  0  0  0  0
   -1.7919    1.6646    1.6745 S   0  0  0  0  0  0  0  0  0  0  0  0
   -3.3419   -0.3535    0.2291 O   0  0  0  0  0  0  0  0  0  0  0  0
   -4.3064    0.5833   -0.2524 C   0  0  0  0  0  0  0  0  0  0  0  0
   -1.3450   -1.2741    1.2325 O   0  0  0  0  0  0  0  0  0  0  0  0
   -1.6385   -2.5932    0.7322 C   0  0  0  0  0  0  0  0  0  0  0  0
    3.0005   -3.8550   -0.9466 H   0  0  0  0  0  0  0  0  0  0  0  0
    4.5959   -3.0847   -0.9386 H   0  0  0  0  0  0  0  0  0  0  0  0
    4.0581   -4.0309    0.4590 H   0  0  0  0  0  0  0  0  0  0  0  0
    3.8622   -1.5935    0.9365 H   0  0  0  0  0  0  0  0  0  0  0  0
    2.2417   -2.3531    0.8831 H   0  0  0  0  0  0  0  0  0  0  0  0
    0.9289   -0.5037   -3.2153 H   0  0  0  0  0  0  0  0  0  0  0  0
    2.3425    0.3622   -2.5189 H   0  0  0  0  0  0  0  0  0  0  0  0
    2.5113    1.3911    1.7312 H   0  0  0  0  0  0  0  0  0  0  0  0
    3.5440    2.5667    0.8479 H   0  0  0  0  0  0  0  0  0  0  0  0
    1.7610    4.2982    1.1242 H   0  0  0  0  0  0  0  0  0  0  0  0
    0.7533    3.1352    1.9963 H   0  0  0  0  0  0  0  0  0  0  0  0
    2.2773    3.6844    2.7034 H   0  0  0  0  0  0  0  0  0  0  0  0
   -4.1653    0.7447   -1.3207 H   0  0  0  0  0  0  0  0  0  0  0  0
   -4.2094    1.5291    0.2845 H   0  0  0  0  0  0  0  0  0  0  0  0
   -5.2770    0.1345   -0.0558 H   0  0  0  0  0  0  0  0  0  0  0  0
   -0.9619   -2.8278   -0.0899 H   0  0  0  0  0  0  0  0  0  0  0  0
   -2.6736   -2.6538    0.4035 H   0  0  0  0  0  0  0  0  0  0  0  0
   -1.4619   -3.2564    1.5754 H   0  0  0  0  0  0  0  0  0  0  0  0
  1  2  1  0  0  0  0
  2  3  1  0  0  0  0
  3  4  1  0  0  0  0
  4  5  2  0  0  0  0
  4  6  1  0  0  0  0
  6  7  1  0  0  0  0
  7  8  1  0  0  0  0
  7  9  1  0  0  0  0
  9 10  2  0  0  0  0
  9 11  4  0  0  0  0
 11 12  1  0  0  0  0
 12 13  1  0  0  0  0
  7 14  1  0  0  0  0
 14 15  1  0  0  0  0
 15 16  2  0  0  0  0
 15 17  1  0  0  0  0
 17 18  1  0  0  0  0
 15 19  2  0  0  0  0
 19 20  1  0  0  0  0
  1 21  1  0  0  0  0
  1 22  1  0  0  0  0
  1 23  1  0  0  0  0
  2 24  1  0  0  0  0
  2 25  1  0  0  0  0
  6 26  1  0  0  0  0
  6 27  1  0  0  0  0
 12 28  1  0  0  0  0
 12 29  1  0  0  0  0
 13 30  1  0  0  0  0
 13 31  1  0  0  0  0
 13 32  1  0  0  0  0
 18 33  1  0  0  0  0
 18 34  1  0  0  0  0
 18 35  1  0  0  0  0
 20 36  1  0  0  0  0
 20 37  1  0  0  0  0
 20 38  1  0  0  0  0
M  END
