 xtb: 6.7.1 (edcfbbe)
          04092505213D

 41 40  0     0  0            999 V2000
    4.0062   -0.3415   -2.6057 C   0  0  0  0  0  0  0  0  0  0  0  0
    3.1129    0.6642   -1.9063 C   0  0  0  0  0  0  0  0  0  0  0  0
    2.0461    0.0023   -1.1993 O   0  0  0  0  0  0  0  0  0  0  0  0
    2.1727   -0.3755    0.3439 P   0  0  0  0  0  0  0  0  0  0  0  0
    3.7334   -1.4314    0.8717 S   0  0  0  0  0  0  0  0  0  0  0  0
    0.7580   -1.0535    0.6117 O   0  0  0  0  0  0  0  0  0  0  0  0
    0.6384   -2.4913    0.5567 C   0  0  0  0  0  0  0  0  0  0  0  0
    0.7544   -2.9992   -0.8646 C   0  0  0  0  0  0  0  0  0  0  0  0
    1.9855    1.4606    1.3530 S   0  0  0  0  0  0  0  0  0  0  0  0
    0.4220    2.0701    0.6458 C   0  0  0  0  0  0  0  0  0  0  0  0
   -1.0427    1.4954    1.5507 S   0  0  0  0  0  0  0  0  0  0  0  0
   -1.9906    0.3239    0.0610 P   0  0  0  0  0  0  0  0  0  0  0  0
   -1.1601    0.3083   -1.7211 S   0  0  0  0  0  0  0  0  0  0  0  0
   -3.5036    0.8308    0.0365 O   0  0  0  0  0  0  0  0  0  0  0  0
   -3.9483    1.8803   -0.8364 C   0  0  0  0  0  0  0  0  0  0  0  0
   -3.3748    3.2284   -0.4500 C   0  0  0  0  0  0  0  0  0  0  0  0
   -2.1577   -1.0375    0.8550 O   0  0  0  0  0  0  0  0  0  0  0  0
   -3.2818   -1.9323    0.6954 C   0  0  0  0  0  0  0  0  0  0  0  0
   -3.3271   -2.5535   -0.6856 C   0  0  0  0  0  0  0  0  0  0  0  0
    4.7623    0.1888   -3.1755 H   0  0  0  0  0  0  0  0  0  0  0  0
    4.4963   -0.9820   -1.8756 H   0  0  0  0  0  0  0  0  0  0  0  0
    3.4159   -0.9588   -3.2774 H   0  0  0  0  0  0  0  0  0  0  0  0
    2.6051    1.3101   -2.6258 H   0  0  0  0  0  0  0  0  0  0  0  0
    3.6868    1.2752   -1.2016 H   0  0  0  0  0  0  0  0  0  0  0  0
    1.4195   -2.9262    1.1887 H   0  0  0  0  0  0  0  0  0  0  0  0
   -0.3422   -2.6888    0.9893 H   0  0  0  0  0  0  0  0  0  0  0  0
    1.7683   -2.8374   -1.2286 H   0  0  0  0  0  0  0  0  0  0  0  0
    0.5321   -4.0613   -0.8917 H   0  0  0  0  0  0  0  0  0  0  0  0
    0.0660   -2.4613   -1.5133 H   0  0  0  0  0  0  0  0  0  0  0  0
    0.3413    1.7478   -0.3967 H   0  0  0  0  0  0  0  0  0  0  0  0
    0.4685    3.1520    0.7328 H   0  0  0  0  0  0  0  0  0  0  0  0
   -3.6632    1.6220   -1.8616 H   0  0  0  0  0  0  0  0  0  0  0  0
   -5.0344    1.8618   -0.7369 H   0  0  0  0  0  0  0  0  0  0  0  0
   -3.5520    3.4269    0.6039 H   0  0  0  0  0  0  0  0  0  0  0  0
   -2.3017    3.2423   -0.6356 H   0  0  0  0  0  0  0  0  0  0  0  0
   -3.8447    4.0027   -1.0480 H   0  0  0  0  0  0  0  0  0  0  0  0
   -3.1229   -2.6848    1.4700 H   0  0  0  0  0  0  0  0  0  0  0  0
   -4.1979   -1.3766    0.9047 H   0  0  0  0  0  0  0  0  0  0  0  0
   -2.4094   -3.0996   -0.8896 H   0  0  0  0  0  0  0  0  0  0  0  0
   -4.1701   -3.2347   -0.7463 H   0  0  0  0  0  0  0  0  0  0  0  0
   -3.4435   -1.7766   -1.4405 H   0  0  0  0  0  0  0  0  0  0  0  0
  1  2  1  0  0  0  0
  2  3  1  0  0  0  0
  3  4  2  0  0  0  0
  4  5  2  0  0  0  0
  4  6  1  0  0  0  0
  6  7  1  0  0  0  0
  7  8  1  0  0  0  0
  4  9  1  0  0  0  0
  9 10  1  0  0  0  0
 10 11  1  0  0  0  0
 11 12  1  0  0  0  0
 12 13  2  0  0  0  0
 12 14  2  0  0  0  0
 14 15  1  0  0  0  0
 15 16  1  0  0  0  0
 12 17  2  0  0  0  0
 17 18  1  0  0  0  0
 18 19  1  0  0  0  0
  1 20  1  0  0  0  0
  1 21  1  0  0  0  0
  1 22  1  0  0  0  0
  2 23  1  0  0  0  0
  2 24  1  0  0  0  0
  7 25  1  0  0  0  0
  7 26  1  0  0  0  0
  8 27  1  0  0  0  0
  8 28  1  0  0  0  0
  8 29  1  0  0  0  0
 10 30  1  0  0  0  0
 10 31  1  0  0  0  0
 15 32  1  0  0  0  0
 15 33  1  0  0  0  0
 16 34  1  0  0  0  0
 16 35  1  0  0  0  0
 16 36  1  0  0  0  0
 18 37  1  0  0  0  0
 18 38  1  0  0  0  0
 19 39  1  0  0  0  0
 19 40  1  0  0  0  0
 19 41  1  0  0  0  0
M  END
