 xtb: 6.7.1 (edcfbbe)
          04092505213D

 41 40  0     0  0            999 V2000
    1.8677   -2.9245    0.5932 C   0  0  0  0  0  0  0  0  0  0  0  0
    1.8931   -1.7191    1.5101 C   0  0  0  0  0  0  0  0  0  0  0  0
    2.8815   -0.7464    1.1278 O   0  0  0  0  0  0  0  0  0  0  0  0
    2.8410    0.1449   -0.1908 P   0  0  0  0  0  0  0  0  0  0  0  0
    3.1571   -0.7313   -1.9104 S   0  0  0  0  0  0  0  0  0  0  0  0
    3.9620    1.2064    0.0959 O   0  0  0  0  0  0  0  0  0  0  0  0
    3.9921    2.0514    1.2750 C   0  0  0  0  0  0  0  0  0  0  0  0
    4.8996    1.4626    2.3353 C   0  0  0  0  0  0  0  0  0  0  0  0
    1.0005    1.2502   -0.0363 S   0  0  0  0  0  0  0  0  0  0  0  0
    0.0921    0.4432   -1.3752 C   0  0  0  0  0  0  0  0  0  0  0  0
   -0.9708   -0.8897   -0.7816 S   0  0  0  0  0  0  0  0  0  0  0  0
   -2.6235    0.3466   -0.2316 P   0  0  0  0  0  0  0  0  0  0  0  0
   -3.0089    1.7871   -1.5028 S   0  0  0  0  0  0  0  0  0  0  0  0
   -2.3703    0.9282    1.2041 O   0  0  0  0  0  0  0  0  0  0  0  0
   -1.7697    0.2787    2.3534 C   0  0  0  0  0  0  0  0  0  0  0  0
   -2.2837   -1.1241    2.5895 C   0  0  0  0  0  0  0  0  0  0  0  0
   -3.8000   -0.6932   -0.0131 O   0  0  0  0  0  0  0  0  0  0  0  0
   -4.4405   -1.3410   -1.1305 C   0  0  0  0  0  0  0  0  0  0  0  0
   -5.7711   -1.8852   -0.6516 C   0  0  0  0  0  0  0  0  0  0  0  0
    1.5060   -2.6461   -0.3951 H   0  0  0  0  0  0  0  0  0  0  0  0
    2.8658   -3.3426    0.4917 H   0  0  0  0  0  0  0  0  0  0  0  0
    1.2032   -3.6748    1.0088 H   0  0  0  0  0  0  0  0  0  0  0  0
    2.1877   -1.9981    2.5233 H   0  0  0  0  0  0  0  0  0  0  0  0
    0.9125   -1.2349    1.5304 H   0  0  0  0  0  0  0  0  0  0  0  0
    4.3723    3.0082    0.9126 H   0  0  0  0  0  0  0  0  0  0  0  0
    2.9716    2.1799    1.6455 H   0  0  0  0  0  0  0  0  0  0  0  0
    4.9502    2.1457    3.1774 H   0  0  0  0  0  0  0  0  0  0  0  0
    4.5172    0.5030    2.6713 H   0  0  0  0  0  0  0  0  0  0  0  0
    5.8973    1.3183    1.9299 H   0  0  0  0  0  0  0  0  0  0  0  0
    0.8090    0.0115   -2.0779 H   0  0  0  0  0  0  0  0  0  0  0  0
   -0.5320    1.1989   -1.8558 H   0  0  0  0  0  0  0  0  0  0  0  0
   -0.6864    0.2913    2.2052 H   0  0  0  0  0  0  0  0  0  0  0  0
   -2.0289    0.9469    3.1762 H   0  0  0  0  0  0  0  0  0  0  0  0
   -2.0096   -1.7762    1.7624 H   0  0  0  0  0  0  0  0  0  0  0  0
   -1.8463   -1.5101    3.5053 H   0  0  0  0  0  0  0  0  0  0  0  0
   -3.3662   -1.1146    2.6848 H   0  0  0  0  0  0  0  0  0  0  0  0
   -4.5724   -0.6073   -1.9330 H   0  0  0  0  0  0  0  0  0  0  0  0
   -3.7838   -2.1410   -1.4823 H   0  0  0  0  0  0  0  0  0  0  0  0
   -6.2698   -2.3823   -1.4771 H   0  0  0  0  0  0  0  0  0  0  0  0
   -5.6142   -2.5955    0.1545 H   0  0  0  0  0  0  0  0  0  0  0  0
   -6.3974   -1.0740   -0.2912 H   0  0  0  0  0  0  0  0  0  0  0  0
  1  2  1  0  0  0  0
  2  3  1  0  0  0  0
  3  4  2  0  0  0  0
  4  5  2  0  0  0  0
  4  6  2  0  0  0  0
  6  7  1  0  0  0  0
  7  8  1  0  0  0  0
  4  9  1  0  0  0  0
  9 10  1  0  0  0  0
 10 11  1  0  0  0  0
 11 12  1  0  0  0  0
 12 13  2  0  0  0  0
 12 14  2  0  0  0  0
 14 15  1  0  0  0  0
 15 16  1  0  0  0  0
 12 17  2  0  0  0  0
 17 18  1  0  0  0  0
 18 19  1  0  0  0  0
  1 20  1  0  0  0  0
  1 21  1  0  0  0  0
  1 22  1  0  0  0  0
  2 23  1  0  0  0  0
  2 24  1  0  0  0  0
  7 25  1  0  0  0  0
  7 26  1  0  0  0  0
  8 27  1  0  0  0  0
  8 28  1  0  0  0  0
  8 29  1  0  0  0  0
 10 30  1  0  0  0  0
 10 31  1  0  0  0  0
 15 32  1  0  0  0  0
 15 33  1  0  0  0  0
 16 34  1  0  0  0  0
 16 35  1  0  0  0  0
 16 36  1  0  0  0  0
 18 37  1  0  0  0  0
 18 38  1  0  0  0  0
 19 39  1  0  0  0  0
 19 40  1  0  0  0  0
 19 41  1  0  0  0  0
M  END
