 xtb: 6.7.1 (edcfbbe)
          04092505213D

 41 40  0     0  0            999 V2000
    0.6572    1.8118    3.1193 C   0  0  0  0  0  0  0  0  0  0  0  0
    1.0419    1.9836    1.6621 C   0  0  0  0  0  0  0  0  0  0  0  0
    2.1718    1.1574    1.3296 O   0  0  0  0  0  0  0  0  0  0  0  0
    2.0926   -0.3361    0.8187 P   0  0  0  0  0  0  0  0  0  0  0  0
    1.1326   -1.6698    1.8981 S   0  0  0  0  0  0  0  0  0  0  0  0
    3.6629   -0.5339    0.7775 O   0  0  0  0  0  0  0  0  0  0  0  0
    4.2768   -1.8325    0.7823 C   0  0  0  0  0  0  0  0  0  0  0  0
    4.0140   -2.5958   -0.5011 C   0  0  0  0  0  0  0  0  0  0  0  0
    1.4946   -0.1680   -1.2214 S   0  0  0  0  0  0  0  0  0  0  0  0
    0.3422   -1.5724   -1.3441 C   0  0  0  0  0  0  0  0  0  0  0  0
   -1.2516   -1.1667   -2.1184 S   0  0  0  0  0  0  0  0  0  0  0  0
   -2.0108    0.3214   -0.8037 P   0  0  0  0  0  0  0  0  0  0  0  0
   -3.9318    0.6148   -1.0336 S   0  0  0  0  0  0  0  0  0  0  0  0
   -1.0561    1.5781   -0.9936 O   0  0  0  0  0  0  0  0  0  0  0  0
   -1.0442    2.3019   -2.2406 C   0  0  0  0  0  0  0  0  0  0  0  0
   -1.9279    3.5302   -2.1546 C   0  0  0  0  0  0  0  0  0  0  0  0
   -1.4955   -0.0775    0.6422 O   0  0  0  0  0  0  0  0  0  0  0  0
   -2.3438   -0.8055    1.5561 C   0  0  0  0  0  0  0  0  0  0  0  0
   -3.0402    0.1488    2.5040 C   0  0  0  0  0  0  0  0  0  0  0  0
   -0.1520    2.4949    3.3587 H   0  0  0  0  0  0  0  0  0  0  0  0
    0.3305    0.7907    3.3053 H   0  0  0  0  0  0  0  0  0  0  0  0
    1.5099    2.0261    3.7582 H   0  0  0  0  0  0  0  0  0  0  0  0
    1.3856    3.0006    1.4621 H   0  0  0  0  0  0  0  0  0  0  0  0
    0.2017    1.7491    1.0043 H   0  0  0  0  0  0  0  0  0  0  0  0
    5.3384   -1.6178    0.9117 H   0  0  0  0  0  0  0  0  0  0  0  0
    3.9052   -2.3929    1.6464 H   0  0  0  0  0  0  0  0  0  0  0  0
    4.6152   -3.4994   -0.5109 H   0  0  0  0  0  0  0  0  0  0  0  0
    2.9622   -2.8733   -0.5596 H   0  0  0  0  0  0  0  0  0  0  0  0
    4.2692   -1.9835   -1.3625 H   0  0  0  0  0  0  0  0  0  0  0  0
    0.1763   -1.9714   -0.3395 H   0  0  0  0  0  0  0  0  0  0  0  0
    0.7733   -2.3226   -2.0028 H   0  0  0  0  0  0  0  0  0  0  0  0
    0.0032    2.5680   -2.3998 H   0  0  0  0  0  0  0  0  0  0  0  0
   -1.3737    1.6377   -3.0472 H   0  0  0  0  0  0  0  0  0  0  0  0
   -1.8654    4.0811   -3.0876 H   0  0  0  0  0  0  0  0  0  0  0  0
   -2.9613    3.2361   -1.9837 H   0  0  0  0  0  0  0  0  0  0  0  0
   -1.6051    4.1675   -1.3363 H   0  0  0  0  0  0  0  0  0  0  0  0
   -3.0754   -1.3862    0.9863 H   0  0  0  0  0  0  0  0  0  0  0  0
   -1.6698   -1.4820    2.0869 H   0  0  0  0  0  0  0  0  0  0  0  0
   -3.6338   -0.4231    3.2099 H   0  0  0  0  0  0  0  0  0  0  0  0
   -2.3089    0.7420    3.0451 H   0  0  0  0  0  0  0  0  0  0  0  0
   -3.6946    0.8146    1.9449 H   0  0  0  0  0  0  0  0  0  0  0  0
  1  2  1  0  0  0  0
  2  3  1  0  0  0  0
  3  4  2  0  0  0  0
  4  5  2  0  0  0  0
  4  6  2  0  0  0  0
  6  7  1  0  0  0  0
  7  8  1  0  0  0  0
  4  9  1  0  0  0  0
  9 10  1  0  0  0  0
 10 11  1  0  0  0  0
 11 12  1  0  0  0  0
 12 13  2  0  0  0  0
 12 14  2  0  0  0  0
 14 15  1  0  0  0  0
 15 16  1  0  0  0  0
 12 17  2  0  0  0  0
 17 18  1  0  0  0  0
 18 19  1  0  0  0  0
  1 20  1  0  0  0  0
  1 21  1  0  0  0  0
  1 22  1  0  0  0  0
  2 23  1  0  0  0  0
  2 24  1  0  0  0  0
  7 25  1  0  0  0  0
  7 26  1  0  0  0  0
  8 27  1  0  0  0  0
  8 28  1  0  0  0  0
  8 29  1  0  0  0  0
 10 30  1  0  0  0  0
 10 31  1  0  0  0  0
 15 32  1  0  0  0  0
 15 33  1  0  0  0  0
 16 34  1  0  0  0  0
 16 35  1  0  0  0  0
 16 36  1  0  0  0  0
 18 37  1  0  0  0  0
 18 38  1  0  0  0  0
 19 39  1  0  0  0  0
 19 40  1  0  0  0  0
 19 41  1  0  0  0  0
M  END
