 xtb: 6.7.1 (edcfbbe)
          04092505213D

 41 40  0     0  0            999 V2000
    5.6000    0.7112   -0.2384 C   0  0  0  0  0  0  0  0  0  0  0  0
    4.3362    1.2533   -0.8777 C   0  0  0  0  0  0  0  0  0  0  0  0
    3.3386    0.2190   -1.0128 O   0  0  0  0  0  0  0  0  0  0  0  0
    2.2351   -0.0552    0.0942 P   0  0  0  0  0  0  0  0  0  0  0  0
    2.8613   -0.4055    1.9215 S   0  0  0  0  0  0  0  0  0  0  0  0
    1.4016   -1.2135   -0.5835 O   0  0  0  0  0  0  0  0  0  0  0  0
    1.5872   -2.6014   -0.2469 C   0  0  0  0  0  0  0  0  0  0  0  0
    2.9226   -3.1140   -0.7409 C   0  0  0  0  0  0  0  0  0  0  0  0
    0.9366    1.5956   -0.1230 S   0  0  0  0  0  0  0  0  0  0  0  0
    0.0463    1.3627    1.4394 C   0  0  0  0  0  0  0  0  0  0  0  0
   -0.8700   -0.2044    1.5236 S   0  0  0  0  0  0  0  0  0  0  0  0
   -2.0725   -0.0344   -0.2191 P   0  0  0  0  0  0  0  0  0  0  0  0
   -1.4093   -0.4983   -1.9959 S   0  0  0  0  0  0  0  0  0  0  0  0
   -2.5472    1.4796   -0.0232 O   0  0  0  0  0  0  0  0  0  0  0  0
   -2.9871    2.2806   -1.1377 C   0  0  0  0  0  0  0  0  0  0  0  0
   -4.3729    1.8704   -1.5916 C   0  0  0  0  0  0  0  0  0  0  0  0
   -3.2922   -0.9809    0.1400 O   0  0  0  0  0  0  0  0  0  0  0  0
   -4.0988   -0.8143    1.3341 C   0  0  0  0  0  0  0  0  0  0  0  0
   -5.5094   -1.2639    1.0119 C   0  0  0  0  0  0  0  0  0  0  0  0
    5.9820   -0.1255   -0.8168 H   0  0  0  0  0  0  0  0  0  0  0  0
    6.3481    1.4966   -0.2062 H   0  0  0  0  0  0  0  0  0  0  0  0
    5.3963    0.3741    0.7756 H   0  0  0  0  0  0  0  0  0  0  0  0
    4.5191    1.5880   -1.9005 H   0  0  0  0  0  0  0  0  0  0  0  0
    3.9221    2.0796   -0.2926 H   0  0  0  0  0  0  0  0  0  0  0  0
    1.5029   -2.7092    0.8401 H   0  0  0  0  0  0  0  0  0  0  0  0
    0.7485   -3.1013   -0.7348 H   0  0  0  0  0  0  0  0  0  0  0  0
    3.0178   -2.9371   -1.8091 H   0  0  0  0  0  0  0  0  0  0  0  0
    3.7275   -2.5927   -0.2233 H   0  0  0  0  0  0  0  0  0  0  0  0
    2.9991   -4.1776   -0.5386 H   0  0  0  0  0  0  0  0  0  0  0  0
   -0.6412    2.1978    1.5404 H   0  0  0  0  0  0  0  0  0  0  0  0
    0.7592    1.3284    2.2641 H   0  0  0  0  0  0  0  0  0  0  0  0
   -2.9666    3.3027   -0.7574 H   0  0  0  0  0  0  0  0  0  0  0  0
   -2.2646    2.1715   -1.9525 H   0  0  0  0  0  0  0  0  0  0  0  0
   -4.6896    2.5119   -2.4078 H   0  0  0  0  0  0  0  0  0  0  0  0
   -4.3511    0.8383   -1.9411 H   0  0  0  0  0  0  0  0  0  0  0  0
   -5.0815    1.9553   -0.7716 H   0  0  0  0  0  0  0  0  0  0  0  0
   -3.6517   -1.4296    2.1181 H   0  0  0  0  0  0  0  0  0  0  0  0
   -4.0706    0.2350    1.6379 H   0  0  0  0  0  0  0  0  0  0  0  0
   -5.9365   -0.6413    0.2306 H   0  0  0  0  0  0  0  0  0  0  0  0
   -5.4994   -2.2943    0.6684 H   0  0  0  0  0  0  0  0  0  0  0  0
   -6.1194   -1.1886    1.9063 H   0  0  0  0  0  0  0  0  0  0  0  0
  1  2  1  0  0  0  0
  2  3  1  0  0  0  0
  3  4  2  0  0  0  0
  4  5  2  0  0  0  0
  4  6  2  0  0  0  0
  6  7  1  0  0  0  0
  7  8  1  0  0  0  0
  4  9  1  0  0  0  0
  9 10  1  0  0  0  0
 10 11  1  0  0  0  0
 11 12  1  0  0  0  0
 12 13  2  0  0  0  0
 12 14  1  0  0  0  0
 14 15  1  0  0  0  0
 15 16  1  0  0  0  0
 12 17  2  0  0  0  0
 17 18  1  0  0  0  0
 18 19  1  0  0  0  0
  1 20  1  0  0  0  0
  1 21  1  0  0  0  0
  1 22  1  0  0  0  0
  2 23  1  0  0  0  0
  2 24  1  0  0  0  0
  7 25  1  0  0  0  0
  7 26  1  0  0  0  0
  8 27  1  0  0  0  0
  8 28  1  0  0  0  0
  8 29  1  0  0  0  0
 10 30  1  0  0  0  0
 10 31  1  0  0  0  0
 15 32  1  0  0  0  0
 15 33  1  0  0  0  0
 16 34  1  0  0  0  0
 16 35  1  0  0  0  0
 16 36  1  0  0  0  0
 18 37  1  0  0  0  0
 18 38  1  0  0  0  0
 19 39  1  0  0  0  0
 19 40  1  0  0  0  0
 19 41  1  0  0  0  0
M  END
