 xtb: 6.7.1 (edcfbbe)
          04092505203D

 41 40  0     0  0            999 V2000
    4.5594   -1.7406   -0.6220 C   0  0  0  0  0  0  0  0  0  0  0  0
    4.6422   -0.2749   -0.2469 C   0  0  0  0  0  0  0  0  0  0  0  0
    3.4864    0.1677    0.4847 O   0  0  0  0  0  0  0  0  0  0  0  0
    2.0447    0.2888   -0.1785 P   0  0  0  0  0  0  0  0  0  0  0  0
    2.0594    0.9089   -2.0417 S   0  0  0  0  0  0  0  0  0  0  0  0
    1.2951    1.1787    0.8958 O   0  0  0  0  0  0  0  0  0  0  0  0
    1.2844    2.6173    0.8444 C   0  0  0  0  0  0  0  0  0  0  0  0
    2.6620    3.2078    1.0550 C   0  0  0  0  0  0  0  0  0  0  0  0
    1.1891   -1.5906    0.2187 S   0  0  0  0  0  0  0  0  0  0  0  0
    0.0124   -1.7289   -1.1732 C   0  0  0  0  0  0  0  0  0  0  0  0
   -1.6852   -1.9808   -0.6235 S   0  0  0  0  0  0  0  0  0  0  0  0
   -2.0329   -0.0188    0.1226 P   0  0  0  0  0  0  0  0  0  0  0  0
   -1.4209    1.4508   -1.0170 S   0  0  0  0  0  0  0  0  0  0  0  0
   -1.3312    0.0809    1.5297 O   0  0  0  0  0  0  0  0  0  0  0  0
   -1.5568   -0.8579    2.6116 C   0  0  0  0  0  0  0  0  0  0  0  0
   -2.5412   -0.2903    3.6129 C   0  0  0  0  0  0  0  0  0  0  0  0
   -3.5701   -0.0661    0.5167 O   0  0  0  0  0  0  0  0  0  0  0  0
   -4.6300   -0.5434   -0.3349 C   0  0  0  0  0  0  0  0  0  0  0  0
   -4.6636    0.1539   -1.6783 C   0  0  0  0  0  0  0  0  0  0  0  0
    4.3423   -2.3443    0.2556 H   0  0  0  0  0  0  0  0  0  0  0  0
    3.7706   -1.8913   -1.3577 H   0  0  0  0  0  0  0  0  0  0  0  0
    5.5053   -2.0536   -1.0521 H   0  0  0  0  0  0  0  0  0  0  0  0
    4.7396    0.3445   -1.1444 H   0  0  0  0  0  0  0  0  0  0  0  0
    5.4720   -0.0788    0.4336 H   0  0  0  0  0  0  0  0  0  0  0  0
    0.8676    2.9248   -0.1209 H   0  0  0  0  0  0  0  0  0  0  0  0
    0.5915    2.8973    1.6396 H   0  0  0  0  0  0  0  0  0  0  0  0
    3.3074    2.9510    0.2156 H   0  0  0  0  0  0  0  0  0  0  0  0
    2.5807    4.2885    1.1190 H   0  0  0  0  0  0  0  0  0  0  0  0
    3.1006    2.8193    1.9705 H   0  0  0  0  0  0  0  0  0  0  0  0
    0.2755   -2.6101   -1.7523 H   0  0  0  0  0  0  0  0  0  0  0  0
    0.0776   -0.8216   -1.7807 H   0  0  0  0  0  0  0  0  0  0  0  0
   -1.9145   -1.8036    2.1943 H   0  0  0  0  0  0  0  0  0  0  0  0
   -0.5698   -1.0049    3.0552 H   0  0  0  0  0  0  0  0  0  0  0  0
   -3.5067   -0.1284    3.1410 H   0  0  0  0  0  0  0  0  0  0  0  0
   -2.6542   -0.9913    4.4339 H   0  0  0  0  0  0  0  0  0  0  0  0
   -2.1773    0.6583    3.9980 H   0  0  0  0  0  0  0  0  0  0  0  0
   -4.5037   -1.6219   -0.4619 H   0  0  0  0  0  0  0  0  0  0  0  0
   -5.5336   -0.3387    0.2419 H   0  0  0  0  0  0  0  0  0  0  0  0
   -4.7235    1.2317   -1.5461 H   0  0  0  0  0  0  0  0  0  0  0  0
   -3.7595   -0.0711   -2.2426 H   0  0  0  0  0  0  0  0  0  0  0  0
   -5.5258   -0.1885   -2.2413 H   0  0  0  0  0  0  0  0  0  0  0  0
  1  2  1  0  0  0  0
  2  3  1  0  0  0  0
  3  4  2  0  0  0  0
  4  5  2  0  0  0  0
  4  6  2  0  0  0  0
  6  7  1  0  0  0  0
  7  8  1  0  0  0  0
  4  9  1  0  0  0  0
  9 10  1  0  0  0  0
 10 11  1  0  0  0  0
 11 12  1  0  0  0  0
 12 13  2  0  0  0  0
 12 14  2  0  0  0  0
 14 15  1  0  0  0  0
 15 16  1  0  0  0  0
 12 17  2  0  0  0  0
 17 18  1  0  0  0  0
 18 19  1  0  0  0  0
  1 20  1  0  0  0  0
  1 21  1  0  0  0  0
  1 22  1  0  0  0  0
  2 23  1  0  0  0  0
  2 24  1  0  0  0  0
  7 25  1  0  0  0  0
  7 26  1  0  0  0  0
  8 27  1  0  0  0  0
  8 28  1  0  0  0  0
  8 29  1  0  0  0  0
 10 30  1  0  0  0  0
 10 31  1  0  0  0  0
 15 32  1  0  0  0  0
 15 33  1  0  0  0  0
 16 34  1  0  0  0  0
 16 35  1  0  0  0  0
 16 36  1  0  0  0  0
 18 37  1  0  0  0  0
 18 38  1  0  0  0  0
 19 39  1  0  0  0  0
 19 40  1  0  0  0  0
 19 41  1  0  0  0  0
M  END
