 xtb: 6.7.1 (edcfbbe)
          04032519403D

 19 19  0     0  0            999 V2000
   -2.6164    0.5524    0.0003 C   0  0  0  0  0  0  0  0  0  0  0  0
   -1.2356   -0.0393   -0.0002 C   0  0  0  0  0  0  0  0  0  0  0  0
   -1.1488   -1.4319   -0.0001 C   0  0  0  0  0  0  0  0  0  0  0  0
    0.0689   -2.0768   -0.0000 C   0  0  0  0  0  0  0  0  0  0  0  0
    1.2382   -1.3358    0.0001 C   0  0  0  0  0  0  0  0  0  0  0  0
    1.1678    0.0473    0.0000 C   0  0  0  0  0  0  0  0  0  0  0  0
   -0.0669    0.7160   -0.0005 C   0  0  0  0  0  0  0  0  0  0  0  0
   -0.0035    2.2157   -0.0001 C   0  0  0  0  0  0  0  0  0  0  0  0
    2.2945    0.8192    0.0002 O   0  0  0  0  0  0  0  0  0  0  0  0
   -3.1600    0.2102    0.8795 H   0  0  0  0  0  0  0  0  0  0  0  0
   -2.6127    1.6360    0.0023 H   0  0  0  0  0  0  0  0  0  0  0  0
   -3.1598    0.2129   -0.8801 H   0  0  0  0  0  0  0  0  0  0  0  0
   -2.0613   -2.0097    0.0001 H   0  0  0  0  0  0  0  0  0  0  0  0
    0.1159   -3.1553    0.0001 H   0  0  0  0  0  0  0  0  0  0  0  0
    2.1993   -1.8301    0.0003 H   0  0  0  0  0  0  0  0  0  0  0  0
    0.5653    2.5534   -0.8655 H   0  0  0  0  0  0  0  0  0  0  0  0
   -0.9817    2.6807   -0.0203 H   0  0  0  0  0  0  0  0  0  0  0  0
    0.5300    2.5550    0.8871 H   0  0  0  0  0  0  0  0  0  0  0  0
    3.0829    0.2573   -0.0009 H   0  0  0  0  0  0  0  0  0  0  0  0
  1  2  1  0  0  0  0
  2  3  4  0  0  0  0
  3  4  4  0  0  0  0
  4  5  4  0  0  0  0
  5  6  4  0  0  0  0
  2  7  4  0  0  0  0
  6  7  4  0  0  0  0
  7  8  1  0  0  0  0
  6  9  1  0  0  0  0
  1 10  1  0  0  0  0
  1 11  1  0  0  0  0
  1 12  1  0  0  0  0
  3 13  1  0  0  0  0
  4 14  1  0  0  0  0
  5 15  1  0  0  0  0
  8 16  1  0  0  0  0
  8 17  1  0  0  0  0
  8 18  1  0  0  0  0
  9 19  1  0  0  0  0
M  END
