 xtb: 6.7.1 (edcfbbe)
          04092505203D

 41 40  0     0  0            999 V2000
    5.7997   -0.5379   -0.4588 C   0  0  0  0  0  0  0  0  0  0  0  0
    4.3365   -0.8515   -0.6974 C   0  0  0  0  0  0  0  0  0  0  0  0
    3.5596    0.2596   -0.2128 O   0  0  0  0  0  0  0  0  0  0  0  0
    2.0375    0.4501   -0.6407 P   0  0  0  0  0  0  0  0  0  0  0  0
    1.7695    0.3947   -2.5786 S   0  0  0  0  0  0  0  0  0  0  0  0
    1.7129    1.8517   -0.0099 O   0  0  0  0  0  0  0  0  0  0  0  0
    1.4458    2.1464    1.3820 C   0  0  0  0  0  0  0  0  0  0  0  0
    2.5074    1.6097    2.3165 C   0  0  0  0  0  0  0  0  0  0  0  0
    1.0617   -1.0782    0.4752 S   0  0  0  0  0  0  0  0  0  0  0  0
   -0.0523   -1.7690   -0.7894 C   0  0  0  0  0  0  0  0  0  0  0  0
   -1.7498   -1.9319   -0.2036 S   0  0  0  0  0  0  0  0  0  0  0  0
   -2.1032    0.1111    0.2771 P   0  0  0  0  0  0  0  0  0  0  0  0
   -1.3690    1.4036   -1.0067 S   0  0  0  0  0  0  0  0  0  0  0  0
   -1.5329    0.3727    1.7264 O   0  0  0  0  0  0  0  0  0  0  0  0
   -2.1237   -0.0723    2.9757 C   0  0  0  0  0  0  0  0  0  0  0  0
   -1.9998   -1.5685    3.1738 C   0  0  0  0  0  0  0  0  0  0  0  0
   -3.6698    0.1843    0.5227 O   0  0  0  0  0  0  0  0  0  0  0  0
   -4.6206    0.4092   -0.5335 C   0  0  0  0  0  0  0  0  0  0  0  0
   -4.6565   -0.7284   -1.5327 C   0  0  0  0  0  0  0  0  0  0  0  0
    6.0771    0.3675   -0.9914 H   0  0  0  0  0  0  0  0  0  0  0  0
    5.9809   -0.3925    0.6020 H   0  0  0  0  0  0  0  0  0  0  0  0
    6.4037   -1.3643   -0.8182 H   0  0  0  0  0  0  0  0  0  0  0  0
    4.0262   -1.7475   -0.1524 H   0  0  0  0  0  0  0  0  0  0  0  0
    4.1231   -0.9875   -1.7633 H   0  0  0  0  0  0  0  0  0  0  0  0
    1.4036    3.2368    1.3963 H   0  0  0  0  0  0  0  0  0  0  0  0
    0.4589    1.7420    1.6255 H   0  0  0  0  0  0  0  0  0  0  0  0
    3.4881    1.9649    2.0110 H   0  0  0  0  0  0  0  0  0  0  0  0
    2.2959    1.9539    3.3242 H   0  0  0  0  0  0  0  0  0  0  0  0
    2.5058    0.5207    2.3054 H   0  0  0  0  0  0  0  0  0  0  0  0
    0.2789   -2.7752   -1.0335 H   0  0  0  0  0  0  0  0  0  0  0  0
   -0.0114   -1.1181   -1.6678 H   0  0  0  0  0  0  0  0  0  0  0  0
   -1.5521    0.4774    3.7252 H   0  0  0  0  0  0  0  0  0  0  0  0
   -3.1671    0.2457    2.9941 H   0  0  0  0  0  0  0  0  0  0  0  0
   -2.6461   -2.1033    2.4821 H   0  0  0  0  0  0  0  0  0  0  0  0
   -0.9719   -1.8850    3.0112 H   0  0  0  0  0  0  0  0  0  0  0  0
   -2.2917   -1.8121    4.1906 H   0  0  0  0  0  0  0  0  0  0  0  0
   -5.5703    0.5123   -0.0063 H   0  0  0  0  0  0  0  0  0  0  0  0
   -4.3661    1.3501   -1.0309 H   0  0  0  0  0  0  0  0  0  0  0  0
   -5.4808   -0.5728   -2.2214 H   0  0  0  0  0  0  0  0  0  0  0  0
   -3.7273   -0.7565   -2.1000 H   0  0  0  0  0  0  0  0  0  0  0  0
   -4.7857   -1.6793   -1.0221 H   0  0  0  0  0  0  0  0  0  0  0  0
  1  2  1  0  0  0  0
  2  3  1  0  0  0  0
  3  4  2  0  0  0  0
  4  5  2  0  0  0  0
  4  6  2  0  0  0  0
  6  7  1  0  0  0  0
  7  8  1  0  0  0  0
  4  9  1  0  0  0  0
  9 10  1  0  0  0  0
 10 11  1  0  0  0  0
 11 12  1  0  0  0  0
 12 13  2  0  0  0  0
 12 14  2  0  0  0  0
 14 15  1  0  0  0  0
 15 16  1  0  0  0  0
 12 17  2  0  0  0  0
 17 18  1  0  0  0  0
 18 19  1  0  0  0  0
  1 20  1  0  0  0  0
  1 21  1  0  0  0  0
  1 22  1  0  0  0  0
  2 23  1  0  0  0  0
  2 24  1  0  0  0  0
  7 25  1  0  0  0  0
  7 26  1  0  0  0  0
  8 27  1  0  0  0  0
  8 28  1  0  0  0  0
  8 29  1  0  0  0  0
 10 30  1  0  0  0  0
 10 31  1  0  0  0  0
 15 32  1  0  0  0  0
 15 33  1  0  0  0  0
 16 34  1  0  0  0  0
 16 35  1  0  0  0  0
 16 36  1  0  0  0  0
 18 37  1  0  0  0  0
 18 38  1  0  0  0  0
 19 39  1  0  0  0  0
 19 40  1  0  0  0  0
 19 41  1  0  0  0  0
M  END
