 xtb: 6.7.1 (edcfbbe)
          04092505213D

 41 40  0     0  0            999 V2000
    5.7474   -0.6806   -0.6325 C   0  0  0  0  0  0  0  0  0  0  0  0
    4.2701   -0.8812   -0.9038 C   0  0  0  0  0  0  0  0  0  0  0  0
    3.5459    0.1395   -0.1895 O   0  0  0  0  0  0  0  0  0  0  0  0
    2.0125    0.4283   -0.5083 P   0  0  0  0  0  0  0  0  0  0  0  0
    1.6422    0.7894   -2.3921 S   0  0  0  0  0  0  0  0  0  0  0  0
    1.7095    1.6360    0.4504 O   0  0  0  0  0  0  0  0  0  0  0  0
    1.9724    1.6145    1.8766 C   0  0  0  0  0  0  0  0  0  0  0  0
    3.3327    2.2012    2.1919 C   0  0  0  0  0  0  0  0  0  0  0  0
    1.0700   -1.3060    0.3292 S   0  0  0  0  0  0  0  0  0  0  0  0
    0.0041   -1.7946   -1.0606 C   0  0  0  0  0  0  0  0  0  0  0  0
   -1.7031   -2.1431   -0.5663 S   0  0  0  0  0  0  0  0  0  0  0  0
   -2.1972   -0.2824    0.2777 P   0  0  0  0  0  0  0  0  0  0  0  0
   -1.4159    1.3567   -0.4885 S   0  0  0  0  0  0  0  0  0  0  0  0
   -1.8117   -0.5807    1.7837 O   0  0  0  0  0  0  0  0  0  0  0  0
   -1.6660    0.4593    2.7703 C   0  0  0  0  0  0  0  0  0  0  0  0
   -3.0088    0.9601    3.2604 C   0  0  0  0  0  0  0  0  0  0  0  0
   -3.7852   -0.2916    0.3323 O   0  0  0  0  0  0  0  0  0  0  0  0
   -4.6033    0.2129   -0.7367 C   0  0  0  0  0  0  0  0  0  0  0  0
   -4.4758   -0.6185   -1.9968 C   0  0  0  0  0  0  0  0  0  0  0  0
    6.0585    0.3026   -0.9740 H   0  0  0  0  0  0  0  0  0  0  0  0
    5.9463   -0.7650    0.4319 H   0  0  0  0  0  0  0  0  0  0  0  0
    6.3121   -1.4391   -1.1643 H   0  0  0  0  0  0  0  0  0  0  0  0
    3.9266   -1.8561   -0.5464 H   0  0  0  0  0  0  0  0  0  0  0  0
    4.0406   -0.7875   -1.9704 H   0  0  0  0  0  0  0  0  0  0  0  0
    1.1728    2.2235    2.3038 H   0  0  0  0  0  0  0  0  0  0  0  0
    1.8875    0.5845    2.2357 H   0  0  0  0  0  0  0  0  0  0  0  0
    3.4064    3.2051    1.7830 H   0  0  0  0  0  0  0  0  0  0  0  0
    3.4564    2.2418    3.2697 H   0  0  0  0  0  0  0  0  0  0  0  0
    4.1190    1.5883    1.7609 H   0  0  0  0  0  0  0  0  0  0  0  0
    0.3821   -2.7241   -1.4790 H   0  0  0  0  0  0  0  0  0  0  0  0
    0.0273   -0.9922   -1.8042 H   0  0  0  0  0  0  0  0  0  0  0  0
   -1.0932   -0.0137    3.5694 H   0  0  0  0  0  0  0  0  0  0  0  0
   -1.0864    1.2764    2.3269 H   0  0  0  0  0  0  0  0  0  0  0  0
   -3.5326    1.4729    2.4557 H   0  0  0  0  0  0  0  0  0  0  0  0
   -3.6165    0.1253    3.5983 H   0  0  0  0  0  0  0  0  0  0  0  0
   -2.8551    1.6529    4.0819 H   0  0  0  0  0  0  0  0  0  0  0  0
   -5.6150    0.1767   -0.3303 H   0  0  0  0  0  0  0  0  0  0  0  0
   -4.3150    1.2510   -0.9315 H   0  0  0  0  0  0  0  0  0  0  0  0
   -3.4758   -0.5084   -2.4157 H   0  0  0  0  0  0  0  0  0  0  0  0
   -4.6494   -1.6688   -1.7763 H   0  0  0  0  0  0  0  0  0  0  0  0
   -5.2009   -0.2768   -2.7285 H   0  0  0  0  0  0  0  0  0  0  0  0
  1  2  1  0  0  0  0
  2  3  1  0  0  0  0
  3  4  2  0  0  0  0
  4  5  2  0  0  0  0
  4  6  2  0  0  0  0
  6  7  1  0  0  0  0
  7  8  1  0  0  0  0
  4  9  1  0  0  0  0
  9 10  1  0  0  0  0
 10 11  1  0  0  0  0
 11 12  1  0  0  0  0
 12 13  2  0  0  0  0
 12 14  2  0  0  0  0
 14 15  1  0  0  0  0
 15 16  1  0  0  0  0
 12 17  2  0  0  0  0
 17 18  1  0  0  0  0
 18 19  1  0  0  0  0
  1 20  1  0  0  0  0
  1 21  1  0  0  0  0
  1 22  1  0  0  0  0
  2 23  1  0  0  0  0
  2 24  1  0  0  0  0
  7 25  1  0  0  0  0
  7 26  1  0  0  0  0
  8 27  1  0  0  0  0
  8 28  1  0  0  0  0
  8 29  1  0  0  0  0
 10 30  1  0  0  0  0
 10 31  1  0  0  0  0
 15 32  1  0  0  0  0
 15 33  1  0  0  0  0
 16 34  1  0  0  0  0
 16 35  1  0  0  0  0
 16 36  1  0  0  0  0
 18 37  1  0  0  0  0
 18 38  1  0  0  0  0
 19 39  1  0  0  0  0
 19 40  1  0  0  0  0
 19 41  1  0  0  0  0
M  END
