 xtb: 6.7.1 (edcfbbe)
          04092505203D

 41 40  0     0  0            999 V2000
    5.3442   -0.5996   -1.0944 C   0  0  0  0  0  0  0  0  0  0  0  0
    4.3592   -1.2468   -0.1397 C   0  0  0  0  0  0  0  0  0  0  0  0
    3.5524   -0.2593    0.5285 O   0  0  0  0  0  0  0  0  0  0  0  0
    2.1506    0.2436   -0.0351 P   0  0  0  0  0  0  0  0  0  0  0  0
    2.1635    1.0289   -1.8364 S   0  0  0  0  0  0  0  0  0  0  0  0
    1.7112    1.1746    1.1646 O   0  0  0  0  0  0  0  0  0  0  0  0
    1.8746    2.6040    1.1272 C   0  0  0  0  0  0  0  0  0  0  0  0
    3.3362    2.9945    1.1662 C   0  0  0  0  0  0  0  0  0  0  0  0
    0.9395   -1.4636    0.2265 S   0  0  0  0  0  0  0  0  0  0  0  0
   -0.0708   -1.4001   -1.3009 C   0  0  0  0  0  0  0  0  0  0  0  0
   -1.8097   -1.7476   -0.9963 S   0  0  0  0  0  0  0  0  0  0  0  0
   -2.4130    0.0725   -0.0585 P   0  0  0  0  0  0  0  0  0  0  0  0
   -1.1577    1.5628   -0.2816 S   0  0  0  0  0  0  0  0  0  0  0  0
   -2.8357   -0.3465    1.4192 O   0  0  0  0  0  0  0  0  0  0  0  0
   -1.9958   -1.0157    2.3749 C   0  0  0  0  0  0  0  0  0  0  0  0
   -1.0754   -0.0490    3.0926 C   0  0  0  0  0  0  0  0  0  0  0  0
   -3.8040    0.4796   -0.6668 O   0  0  0  0  0  0  0  0  0  0  0  0
   -5.0690   -0.1798   -0.4089 C   0  0  0  0  0  0  0  0  0  0  0  0
   -5.0938   -1.6064   -0.9139 C   0  0  0  0  0  0  0  0  0  0  0  0
    5.9715    0.1087   -0.5604 H   0  0  0  0  0  0  0  0  0  0  0  0
    5.9684   -1.3679   -1.5391 H   0  0  0  0  0  0  0  0  0  0  0  0
    4.8139   -0.0718   -1.8840 H   0  0  0  0  0  0  0  0  0  0  0  0
    4.8746   -1.7675    0.6696 H   0  0  0  0  0  0  0  0  0  0  0  0
    3.7065   -1.9499   -0.6662 H   0  0  0  0  0  0  0  0  0  0  0  0
    1.3838    2.9855    0.2253 H   0  0  0  0  0  0  0  0  0  0  0  0
    1.3318    2.9534    2.0065 H   0  0  0  0  0  0  0  0  0  0  0  0
    3.8174    2.5518    2.0343 H   0  0  0  0  0  0  0  0  0  0  0  0
    3.8345    2.6369    0.2656 H   0  0  0  0  0  0  0  0  0  0  0  0
    3.4203    4.0756    1.2122 H   0  0  0  0  0  0  0  0  0  0  0  0
    0.2728   -2.1803   -1.9753 H   0  0  0  0  0  0  0  0  0  0  0  0
    0.0455   -0.4098   -1.7486 H   0  0  0  0  0  0  0  0  0  0  0  0
   -2.7032   -1.4738    3.0689 H   0  0  0  0  0  0  0  0  0  0  0  0
   -1.4212   -1.7969    1.8666 H   0  0  0  0  0  0  0  0  0  0  0  0
   -1.6525    0.7489    3.5527 H   0  0  0  0  0  0  0  0  0  0  0  0
   -0.5218   -0.5836    3.8577 H   0  0  0  0  0  0  0  0  0  0  0  0
   -0.3671    0.3947    2.3954 H   0  0  0  0  0  0  0  0  0  0  0  0
   -5.2624   -0.1373    0.6642 H   0  0  0  0  0  0  0  0  0  0  0  0
   -5.7855    0.4476   -0.9413 H   0  0  0  0  0  0  0  0  0  0  0  0
   -4.8294   -1.6406   -1.9675 H   0  0  0  0  0  0  0  0  0  0  0  0
   -4.3878   -2.2211   -0.3582 H   0  0  0  0  0  0  0  0  0  0  0  0
   -6.0930   -2.0102   -0.7826 H   0  0  0  0  0  0  0  0  0  0  0  0
  1  2  1  0  0  0  0
  2  3  1  0  0  0  0
  3  4  2  0  0  0  0
  4  5  2  0  0  0  0
  4  6  2  0  0  0  0
  6  7  1  0  0  0  0
  7  8  1  0  0  0  0
  4  9  1  0  0  0  0
  9 10  1  0  0  0  0
 10 11  1  0  0  0  0
 11 12  1  0  0  0  0
 12 13  2  0  0  0  0
 12 14  2  0  0  0  0
 14 15  1  0  0  0  0
 15 16  1  0  0  0  0
 12 17  2  0  0  0  0
 17 18  1  0  0  0  0
 18 19  1  0  0  0  0
  1 20  1  0  0  0  0
  1 21  1  0  0  0  0
  1 22  1  0  0  0  0
  2 23  1  0  0  0  0
  2 24  1  0  0  0  0
  7 25  1  0  0  0  0
  7 26  1  0  0  0  0
  8 27  1  0  0  0  0
  8 28  1  0  0  0  0
  8 29  1  0  0  0  0
 10 30  1  0  0  0  0
 10 31  1  0  0  0  0
 15 32  1  0  0  0  0
 15 33  1  0  0  0  0
 16 34  1  0  0  0  0
 16 35  1  0  0  0  0
 16 36  1  0  0  0  0
 18 37  1  0  0  0  0
 18 38  1  0  0  0  0
 19 39  1  0  0  0  0
 19 40  1  0  0  0  0
 19 41  1  0  0  0  0
M  END
