 xtb: 6.7.1 (edcfbbe)
          04092507313D

 38 37  0     0  0            999 V2000
    3.6886   -1.3165    1.7606 C   0  0  0  0  0  0  0  0  0  0  0  0
    2.8558   -2.1706    0.8187 C   0  0  0  0  0  0  0  0  0  0  0  0
    2.5801   -1.4627   -0.4075 O   0  0  0  0  0  0  0  0  0  0  0  0
    1.5872   -0.6187   -0.4411 C   0  0  0  0  0  0  0  0  0  0  0  0
    0.8550   -0.3573    0.5045 O   0  0  0  0  0  0  0  0  0  0  0  0
    1.4027    0.0459   -1.7825 C   0  0  0  0  0  0  0  0  0  0  0  0
    0.3429    1.1261   -1.6265 C   0  0  0  0  0  0  0  0  0  0  0  0
    0.3050    1.7685   -2.5104 H   0  0  0  0  0  0  0  0  0  0  0  0
    0.6060    1.9970   -0.4046 C   0  0  0  0  0  0  0  0  0  0  0  0
   -0.2618    2.4538    0.3013 O   0  0  0  0  0  0  0  0  0  0  0  0
    1.8957    2.2243   -0.2556 O   0  0  0  0  0  0  0  0  0  0  0  0
    2.3122    3.0719    0.8351 C   0  0  0  0  0  0  0  0  0  0  0  0
    2.1975    4.5411    0.4639 C   0  0  0  0  0  0  0  0  0  0  0  0
   -1.3634    0.4650   -1.5566 S   0  0  0  0  0  0  0  0  0  0  0  0
   -1.5936   -0.9149    0.0261 P   0  0  0  0  0  0  0  0  0  0  0  0
   -0.8105   -2.7121    0.0506 S   0  0  0  0  0  0  0  0  0  0  0  0
   -1.6147   -0.2560    1.4804 O   0  0  0  0  0  0  0  0  0  0  0  0
   -2.4489    0.8631    1.8201 C   0  0  0  0  0  0  0  0  0  0  0  0
   -3.1643   -0.9958   -0.3726 O   0  0  0  0  0  0  0  0  0  0  0  0
   -4.0006   -2.1010   -0.0270 C   0  0  0  0  0  0  0  0  0  0  0  0
    3.9412   -1.8991    2.6402 H   0  0  0  0  0  0  0  0  0  0  0  0
    4.6012   -0.9961    1.2659 H   0  0  0  0  0  0  0  0  0  0  0  0
    3.1217   -0.4409    2.0700 H   0  0  0  0  0  0  0  0  0  0  0  0
    1.9049   -2.4555    1.2781 H   0  0  0  0  0  0  0  0  0  0  0  0
    3.3965   -3.0597    0.4962 H   0  0  0  0  0  0  0  0  0  0  0  0
    1.0956   -0.7015   -2.5164 H   0  0  0  0  0  0  0  0  0  0  0  0
    2.3543    0.4738   -2.1001 H   0  0  0  0  0  0  0  0  0  0  0  0
    1.6972    2.8392    1.7093 H   0  0  0  0  0  0  0  0  0  0  0  0
    3.3489    2.7858    1.0144 H   0  0  0  0  0  0  0  0  0  0  0  0
    2.5813    5.1451    1.2794 H   0  0  0  0  0  0  0  0  0  0  0  0
    2.7717    4.7454   -0.4354 H   0  0  0  0  0  0  0  0  0  0  0  0
    1.1567    4.8037    0.2898 H   0  0  0  0  0  0  0  0  0  0  0  0
   -3.3920    0.8182    1.2749 H   0  0  0  0  0  0  0  0  0  0  0  0
   -1.9246    1.7866    1.5779 H   0  0  0  0  0  0  0  0  0  0  0  0
   -2.6159    0.7832    2.8915 H   0  0  0  0  0  0  0  0  0  0  0  0
   -3.4395   -3.0353   -0.0975 H   0  0  0  0  0  0  0  0  0  0  0  0
   -4.8137   -2.0932   -0.7488 H   0  0  0  0  0  0  0  0  0  0  0  0
   -4.3846   -1.9813    0.9865 H   0  0  0  0  0  0  0  0  0  0  0  0
  1  2  1  0  0  0  0
  2  3  1  0  0  0  0
  3  4  4  0  0  0  0
  4  5  2  0  0  0  0
  4  6  1  0  0  0  0
  6  7  1  0  0  0  0
  7  8  1  0  0  0  0
  7  9  1  0  0  0  0
  9 10  2  0  0  0  0
  9 11  1  0  0  0  0
 11 12  1  0  0  0  0
 12 13  1  0  0  0  0
  7 14  1  0  0  0  0
 14 15  1  0  0  0  0
 15 16  2  0  0  0  0
 15 17  1  0  0  0  0
 17 18  1  0  0  0  0
 15 19  1  0  0  0  0
 19 20  1  0  0  0  0
  1 21  1  0  0  0  0
  1 22  1  0  0  0  0
  1 23  1  0  0  0  0
  2 24  1  0  0  0  0
  2 25  1  0  0  0  0
  6 26  1  0  0  0  0
  6 27  1  0  0  0  0
 12 28  1  0  0  0  0
 12 29  1  0  0  0  0
 13 30  1  0  0  0  0
 13 31  1  0  0  0  0
 13 32  1  0  0  0  0
 18 33  1  0  0  0  0
 18 34  1  0  0  0  0
 18 35  1  0  0  0  0
 20 36  1  0  0  0  0
 20 37  1  0  0  0  0
 20 38  1  0  0  0  0
M  END
