 xtb: 6.7.1 (edcfbbe)
          04092507313D

 38 37  0     0  0            999 V2000
    1.1347   -4.1018   -0.8501 C   0  0  0  0  0  0  0  0  0  0  0  0
    2.4374   -3.4749   -0.3796 C   0  0  0  0  0  0  0  0  0  0  0  0
    2.2212   -2.0965   -0.0233 O   0  0  0  0  0  0  0  0  0  0  0  0
    2.4332   -1.1659   -0.9307 C   0  0  0  0  0  0  0  0  0  0  0  0
    2.8647   -1.3635   -2.0439 O   0  0  0  0  0  0  0  0  0  0  0  0
    2.0343    0.2024   -0.4080 C   0  0  0  0  0  0  0  0  0  0  0  0
    0.8299    0.6943   -1.2145 C   0  0  0  0  0  0  0  0  0  0  0  0
    1.1237    0.8490   -2.2566 H   0  0  0  0  0  0  0  0  0  0  0  0
    0.2706    1.9787   -0.6349 C   0  0  0  0  0  0  0  0  0  0  0  0
   -0.8719    2.0604   -0.2293 O   0  0  0  0  0  0  0  0  0  0  0  0
    1.1483    2.9395   -0.6298 O   0  0  0  0  0  0  0  0  0  0  0  0
    0.7905    4.1919   -0.0012 C   0  0  0  0  0  0  0  0  0  0  0  0
    1.0904    4.1395    1.4876 C   0  0  0  0  0  0  0  0  0  0  0  0
   -0.5172   -0.5262   -1.2860 S   0  0  0  0  0  0  0  0  0  0  0  0
   -1.4010   -0.3078    0.6553 P   0  0  0  0  0  0  0  0  0  0  0  0
   -0.4276    0.4090    2.1960 S   0  0  0  0  0  0  0  0  0  0  0  0
   -2.9082    0.1779    0.4414 O   0  0  0  0  0  0  0  0  0  0  0  0
   -3.4344    1.4929    0.6121 C   0  0  0  0  0  0  0  0  0  0  0  0
   -1.6846   -1.8442    0.9741 O   0  0  0  0  0  0  0  0  0  0  0  0
   -2.4853   -2.6874    0.1307 C   0  0  0  0  0  0  0  0  0  0  0  0
    0.7907   -3.6101   -1.7576 H   0  0  0  0  0  0  0  0  0  0  0  0
    1.2922   -5.1558   -1.0521 H   0  0  0  0  0  0  0  0  0  0  0  0
    0.3754   -3.9907   -0.0802 H   0  0  0  0  0  0  0  0  0  0  0  0
    3.2005   -3.5170   -1.1619 H   0  0  0  0  0  0  0  0  0  0  0  0
    2.7992   -3.9466    0.5345 H   0  0  0  0  0  0  0  0  0  0  0  0
    2.8572    0.9040   -0.5481 H   0  0  0  0  0  0  0  0  0  0  0  0
    1.7865    0.1203    0.6517 H   0  0  0  0  0  0  0  0  0  0  0  0
    1.4059    4.9339   -0.5093 H   0  0  0  0  0  0  0  0  0  0  0  0
   -0.2705    4.3825   -0.1802 H   0  0  0  0  0  0  0  0  0  0  0  0
    0.5233    3.3391    1.9606 H   0  0  0  0  0  0  0  0  0  0  0  0
    2.1482    3.9580    1.6537 H   0  0  0  0  0  0  0  0  0  0  0  0
    0.8133    5.0842    1.9430 H   0  0  0  0  0  0  0  0  0  0  0  0
   -3.3494    2.0467   -0.3206 H   0  0  0  0  0  0  0  0  0  0  0  0
   -2.8950    2.0173    1.4006 H   0  0  0  0  0  0  0  0  0  0  0  0
   -4.4775    1.3548    0.8891 H   0  0  0  0  0  0  0  0  0  0  0  0
   -2.0671   -2.7147   -0.8760 H   0  0  0  0  0  0  0  0  0  0  0  0
   -3.5085   -2.3180    0.0987 H   0  0  0  0  0  0  0  0  0  0  0  0
   -2.4466   -3.6718    0.5904 H   0  0  0  0  0  0  0  0  0  0  0  0
  1  2  1  0  0  0  0
  2  3  1  0  0  0  0
  3  4  1  0  0  0  0
  4  5  2  0  0  0  0
  4  6  1  0  0  0  0
  6  7  1  0  0  0  0
  7  8  1  0  0  0  0
  7  9  1  0  0  0  0
  9 10  2  0  0  0  0
  9 11  4  0  0  0  0
 11 12  1  0  0  0  0
 12 13  1  0  0  0  0
  7 14  1  0  0  0  0
 14 15  1  0  0  0  0
 15 16  2  0  0  0  0
 15 17  2  0  0  0  0
 17 18  1  0  0  0  0
 15 19  1  0  0  0  0
 19 20  1  0  0  0  0
  1 21  1  0  0  0  0
  1 22  1  0  0  0  0
  1 23  1  0  0  0  0
  2 24  1  0  0  0  0
  2 25  1  0  0  0  0
  6 26  1  0  0  0  0
  6 27  1  0  0  0  0
 12 28  1  0  0  0  0
 12 29  1  0  0  0  0
 13 30  1  0  0  0  0
 13 31  1  0  0  0  0
 13 32  1  0  0  0  0
 18 33  1  0  0  0  0
 18 34  1  0  0  0  0
 18 35  1  0  0  0  0
 20 36  1  0  0  0  0
 20 37  1  0  0  0  0
 20 38  1  0  0  0  0
M  END
