 xtb: 6.7.1 (edcfbbe)
          04092505213D

 41 40  0     0  0            999 V2000
    5.6480   -1.3179   -0.7448 C   0  0  0  0  0  0  0  0  0  0  0  0
    4.6025   -1.2633    0.3520 C   0  0  0  0  0  0  0  0  0  0  0  0
    3.8208   -0.0539    0.2719 O   0  0  0  0  0  0  0  0  0  0  0  0
    2.4801    0.0593   -0.5715 P   0  0  0  0  0  0  0  0  0  0  0  0
    2.6140   -0.2867   -2.4936 S   0  0  0  0  0  0  0  0  0  0  0  0
    2.0452    1.5507   -0.3103 O   0  0  0  0  0  0  0  0  0  0  0  0
    1.4948    2.1166    0.9013 C   0  0  0  0  0  0  0  0  0  0  0  0
    2.3111    1.8077    2.1371 C   0  0  0  0  0  0  0  0  0  0  0  0
    1.1509   -1.2282    0.4844 S   0  0  0  0  0  0  0  0  0  0  0  0
   -0.0644   -1.4117   -0.8399 C   0  0  0  0  0  0  0  0  0  0  0  0
   -0.8252    0.1679   -1.3350 S   0  0  0  0  0  0  0  0  0  0  0  0
   -2.3201    0.2767    0.1647 P   0  0  0  0  0  0  0  0  0  0  0  0
   -3.3398    1.9474    0.1843 S   0  0  0  0  0  0  0  0  0  0  0  0
   -1.4743   -0.0492    1.4591 O   0  0  0  0  0  0  0  0  0  0  0  0
   -1.9299    0.3164    2.7810 C   0  0  0  0  0  0  0  0  0  0  0  0
   -3.1500   -0.4805    3.1881 C   0  0  0  0  0  0  0  0  0  0  0  0
   -3.1424   -1.0803   -0.0193 O   0  0  0  0  0  0  0  0  0  0  0  0
   -4.1296   -1.2241   -1.0579 C   0  0  0  0  0  0  0  0  0  0  0  0
   -5.5163   -0.9176   -0.5262 C   0  0  0  0  0  0  0  0  0  0  0  0
    6.2570   -2.2066   -0.6149 H   0  0  0  0  0  0  0  0  0  0  0  0
    5.1706   -1.3529   -1.7216 H   0  0  0  0  0  0  0  0  0  0  0  0
    6.2824   -0.4370   -0.7005 H   0  0  0  0  0  0  0  0  0  0  0  0
    5.0677   -1.2185    1.3387 H   0  0  0  0  0  0  0  0  0  0  0  0
    3.9342   -2.1270    0.3015 H   0  0  0  0  0  0  0  0  0  0  0  0
    1.4734    3.1866    0.6872 H   0  0  0  0  0  0  0  0  0  0  0  0
    0.4676    1.7523    1.0071 H   0  0  0  0  0  0  0  0  0  0  0  0
    2.2715    0.7441    2.3638 H   0  0  0  0  0  0  0  0  0  0  0  0
    3.3467    2.0982    1.9815 H   0  0  0  0  0  0  0  0  0  0  0  0
    1.9028    2.3647    2.9751 H   0  0  0  0  0  0  0  0  0  0  0  0
   -0.8297   -2.0947   -0.4802 H   0  0  0  0  0  0  0  0  0  0  0  0
    0.4339   -1.7902   -1.7322 H   0  0  0  0  0  0  0  0  0  0  0  0
   -1.0707    0.1021    3.4177 H   0  0  0  0  0  0  0  0  0  0  0  0
   -2.1485    1.3888    2.7877 H   0  0  0  0  0  0  0  0  0  0  0  0
   -3.9890   -0.2206    2.5440 H   0  0  0  0  0  0  0  0  0  0  0  0
   -2.9515   -1.5451    3.0980 H   0  0  0  0  0  0  0  0  0  0  0  0
   -3.4076   -0.2450    4.2159 H   0  0  0  0  0  0  0  0  0  0  0  0
   -3.8758   -0.5625   -1.8926 H   0  0  0  0  0  0  0  0  0  0  0  0
   -4.0500   -2.2640   -1.3808 H   0  0  0  0  0  0  0  0  0  0  0  0
   -6.2458   -1.0870   -1.3116 H   0  0  0  0  0  0  0  0  0  0  0  0
   -5.7423   -1.5606    0.3196 H   0  0  0  0  0  0  0  0  0  0  0  0
   -5.5750    0.1210   -0.2078 H   0  0  0  0  0  0  0  0  0  0  0  0
  1  2  1  0  0  0  0
  2  3  1  0  0  0  0
  3  4  2  0  0  0  0
  4  5  2  0  0  0  0
  4  6  2  0  0  0  0
  6  7  1  0  0  0  0
  7  8  1  0  0  0  0
  4  9  1  0  0  0  0
  9 10  1  0  0  0  0
 10 11  1  0  0  0  0
 11 12  1  0  0  0  0
 12 13  2  0  0  0  0
 12 14  2  0  0  0  0
 14 15  1  0  0  0  0
 15 16  1  0  0  0  0
 12 17  1  0  0  0  0
 17 18  1  0  0  0  0
 18 19  1  0  0  0  0
  1 20  1  0  0  0  0
  1 21  1  0  0  0  0
  1 22  1  0  0  0  0
  2 23  1  0  0  0  0
  2 24  1  0  0  0  0
  7 25  1  0  0  0  0
  7 26  1  0  0  0  0
  8 27  1  0  0  0  0
  8 28  1  0  0  0  0
  8 29  1  0  0  0  0
 10 30  1  0  0  0  0
 10 31  1  0  0  0  0
 15 32  1  0  0  0  0
 15 33  1  0  0  0  0
 16 34  1  0  0  0  0
 16 35  1  0  0  0  0
 16 36  1  0  0  0  0
 18 37  1  0  0  0  0
 18 38  1  0  0  0  0
 19 39  1  0  0  0  0
 19 40  1  0  0  0  0
 19 41  1  0  0  0  0
M  END
