 xtb: 6.7.1 (edcfbbe)
          04092505213D

 41 40  0     0  0            999 V2000
    0.9293   -2.8377    1.3338 C   0  0  0  0  0  0  0  0  0  0  0  0
    1.9293   -1.7743    1.7410 C   0  0  0  0  0  0  0  0  0  0  0  0
    1.5833   -0.4949    1.1703 O   0  0  0  0  0  0  0  0  0  0  0  0
    2.2698    0.0706   -0.1610 P   0  0  0  0  0  0  0  0  0  0  0  0
    2.9462   -1.2490   -1.4292 S   0  0  0  0  0  0  0  0  0  0  0  0
    3.4492    1.0112    0.3320 O   0  0  0  0  0  0  0  0  0  0  0  0
    3.2387    2.1038    1.2606 C   0  0  0  0  0  0  0  0  0  0  0  0
    4.6002    2.6085    1.6909 C   0  0  0  0  0  0  0  0  0  0  0  0
    0.7868    1.4337   -0.8014 S   0  0  0  0  0  0  0  0  0  0  0  0
   -0.0199    0.3411   -1.9999 C   0  0  0  0  0  0  0  0  0  0  0  0
   -0.7714   -1.1241   -1.2461 S   0  0  0  0  0  0  0  0  0  0  0  0
   -2.2229   -0.1078   -0.1080 P   0  0  0  0  0  0  0  0  0  0  0  0
   -3.0483    1.4926   -0.8933 S   0  0  0  0  0  0  0  0  0  0  0  0
   -1.4241    0.1029    1.2413 O   0  0  0  0  0  0  0  0  0  0  0  0
   -1.8438    1.0376    2.2611 C   0  0  0  0  0  0  0  0  0  0  0  0
   -0.6396    1.8370    2.7168 C   0  0  0  0  0  0  0  0  0  0  0  0
   -3.2599   -1.2344    0.3275 O   0  0  0  0  0  0  0  0  0  0  0  0
   -4.4211   -1.5617   -0.4553 C   0  0  0  0  0  0  0  0  0  0  0  0
   -4.0551   -2.2290   -1.7653 C   0  0  0  0  0  0  0  0  0  0  0  0
   -0.0813   -2.5045    1.5582 H   0  0  0  0  0  0  0  0  0  0  0  0
    1.0023   -3.0336    0.2661 H   0  0  0  0  0  0  0  0  0  0  0  0
    1.1382   -3.7527    1.8787 H   0  0  0  0  0  0  0  0  0  0  0  0
    2.9396   -2.0497    1.4237 H   0  0  0  0  0  0  0  0  0  0  0  0
    1.9143   -1.6090    2.8201 H   0  0  0  0  0  0  0  0  0  0  0  0
    2.6677    2.8800    0.7442 H   0  0  0  0  0  0  0  0  0  0  0  0
    2.6576    1.7356    2.1098 H   0  0  0  0  0  0  0  0  0  0  0  0
    5.1640    2.9382    0.8232 H   0  0  0  0  0  0  0  0  0  0  0  0
    4.4711    3.4411    2.3748 H   0  0  0  0  0  0  0  0  0  0  0  0
    5.1546    1.8164    2.1861 H   0  0  0  0  0  0  0  0  0  0  0  0
    0.7165   -0.0256   -2.7141 H   0  0  0  0  0  0  0  0  0  0  0  0
   -0.7879    0.9410   -2.4877 H   0  0  0  0  0  0  0  0  0  0  0  0
   -2.6176    1.6928    1.8470 H   0  0  0  0  0  0  0  0  0  0  0  0
   -2.2661    0.4466    3.0763 H   0  0  0  0  0  0  0  0  0  0  0  0
   -0.2631    2.4450    1.8976 H   0  0  0  0  0  0  0  0  0  0  0  0
   -0.9289    2.4819    3.5401 H   0  0  0  0  0  0  0  0  0  0  0  0
    0.1460    1.1613    3.0430 H   0  0  0  0  0  0  0  0  0  0  0  0
   -4.9937   -2.2280    0.1912 H   0  0  0  0  0  0  0  0  0  0  0  0
   -4.9851   -0.6411   -0.6365 H   0  0  0  0  0  0  0  0  0  0  0  0
   -3.4025   -3.0799   -1.5870 H   0  0  0  0  0  0  0  0  0  0  0  0
   -4.9593   -2.5647   -2.2628 H   0  0  0  0  0  0  0  0  0  0  0  0
   -3.5383   -1.5215   -2.4124 H   0  0  0  0  0  0  0  0  0  0  0  0
  1  2  1  0  0  0  0
  2  3  1  0  0  0  0
  3  4  1  0  0  0  0
  4  5  2  0  0  0  0
  4  6  2  0  0  0  0
  6  7  1  0  0  0  0
  7  8  1  0  0  0  0
  4  9  1  0  0  0  0
  9 10  1  0  0  0  0
 10 11  1  0  0  0  0
 11 12  1  0  0  0  0
 12 13  2  0  0  0  0
 12 14  2  0  0  0  0
 14 15  1  0  0  0  0
 15 16  1  0  0  0  0
 12 17  2  0  0  0  0
 17 18  1  0  0  0  0
 18 19  1  0  0  0  0
  1 20  1  0  0  0  0
  1 21  1  0  0  0  0
  1 22  1  0  0  0  0
  2 23  1  0  0  0  0
  2 24  1  0  0  0  0
  7 25  1  0  0  0  0
  7 26  1  0  0  0  0
  8 27  1  0  0  0  0
  8 28  1  0  0  0  0
  8 29  1  0  0  0  0
 10 30  1  0  0  0  0
 10 31  1  0  0  0  0
 15 32  1  0  0  0  0
 15 33  1  0  0  0  0
 16 34  1  0  0  0  0
 16 35  1  0  0  0  0
 16 36  1  0  0  0  0
 18 37  1  0  0  0  0
 18 38  1  0  0  0  0
 19 39  1  0  0  0  0
 19 40  1  0  0  0  0
 19 41  1  0  0  0  0
M  END
