 xtb: 6.7.1 (edcfbbe)
          04092505203D

 41 40  0     0  0            999 V2000
    4.0493    1.5988    1.0139 C   0  0  0  0  0  0  0  0  0  0  0  0
    2.5588    1.7715    1.2048 C   0  0  0  0  0  0  0  0  0  0  0  0
    1.8819    0.5331    1.5389 O   0  0  0  0  0  0  0  0  0  0  0  0
    1.9582   -0.8308    0.7542 P   0  0  0  0  0  0  0  0  0  0  0  0
    0.4973   -2.0268    1.2758 S   0  0  0  0  0  0  0  0  0  0  0  0
    3.4116   -1.3643    1.1046 O   0  0  0  0  0  0  0  0  0  0  0  0
    3.7898   -2.7444    0.9707 C   0  0  0  0  0  0  0  0  0  0  0  0
    3.8189   -3.1964   -0.4752 C   0  0  0  0  0  0  0  0  0  0  0  0
    2.0500   -0.3381   -1.3236 S   0  0  0  0  0  0  0  0  0  0  0  0
    0.2762   -0.2110   -1.5711 C   0  0  0  0  0  0  0  0  0  0  0  0
   -0.3933    1.2744   -0.7374 S   0  0  0  0  0  0  0  0  0  0  0  0
   -2.3992    0.5853   -0.6294 P   0  0  0  0  0  0  0  0  0  0  0  0
   -3.0140   -0.4368   -2.1751 S   0  0  0  0  0  0  0  0  0  0  0  0
   -3.2275    1.8909   -0.2585 O   0  0  0  0  0  0  0  0  0  0  0  0
   -3.7637    2.7792   -1.2585 C   0  0  0  0  0  0  0  0  0  0  0  0
   -2.6770    3.5056   -2.0236 C   0  0  0  0  0  0  0  0  0  0  0  0
   -2.4919   -0.2551    0.7005 O   0  0  0  0  0  0  0  0  0  0  0  0
   -2.2140    0.2894    2.0146 C   0  0  0  0  0  0  0  0  0  0  0  0
   -2.5855   -0.7697    3.0298 C   0  0  0  0  0  0  0  0  0  0  0  0
    4.4996    2.5751    0.8633 H   0  0  0  0  0  0  0  0  0  0  0  0
    4.4901    1.1294    1.8893 H   0  0  0  0  0  0  0  0  0  0  0  0
    4.2497    0.9787    0.1425 H   0  0  0  0  0  0  0  0  0  0  0  0
    2.0887    2.1777    0.3041 H   0  0  0  0  0  0  0  0  0  0  0  0
    2.3322    2.4127    2.0577 H   0  0  0  0  0  0  0  0  0  0  0  0
    4.7807   -2.7864    1.4250 H   0  0  0  0  0  0  0  0  0  0  0  0
    3.0894   -3.3541    1.5504 H   0  0  0  0  0  0  0  0  0  0  0  0
    4.4230   -2.5186   -1.0727 H   0  0  0  0  0  0  0  0  0  0  0  0
    4.2377   -4.1962   -0.5293 H   0  0  0  0  0  0  0  0  0  0  0  0
    2.8087   -3.2174   -0.8813 H   0  0  0  0  0  0  0  0  0  0  0  0
   -0.2157   -1.0930   -1.1531 H   0  0  0  0  0  0  0  0  0  0  0  0
    0.0968   -0.1342   -2.6410 H   0  0  0  0  0  0  0  0  0  0  0  0
   -4.3890    2.1930   -1.9384 H   0  0  0  0  0  0  0  0  0  0  0  0
   -4.3832    3.4687   -0.6832 H   0  0  0  0  0  0  0  0  0  0  0  0
   -3.1317    4.2550   -2.6634 H   0  0  0  0  0  0  0  0  0  0  0  0
   -1.9862    3.9875   -1.3361 H   0  0  0  0  0  0  0  0  0  0  0  0
   -2.1241    2.8021   -2.6440 H   0  0  0  0  0  0  0  0  0  0  0  0
   -1.1472    0.5294    2.0660 H   0  0  0  0  0  0  0  0  0  0  0  0
   -2.8011    1.2006    2.1426 H   0  0  0  0  0  0  0  0  0  0  0  0
   -1.9820   -1.6598    2.8679 H   0  0  0  0  0  0  0  0  0  0  0  0
   -2.4008   -0.3874    4.0283 H   0  0  0  0  0  0  0  0  0  0  0  0
   -3.6341   -1.0338    2.9277 H   0  0  0  0  0  0  0  0  0  0  0  0
  1  2  1  0  0  0  0
  2  3  1  0  0  0  0
  3  4  2  0  0  0  0
  4  5  2  0  0  0  0
  4  6  2  0  0  0  0
  6  7  1  0  0  0  0
  7  8  1  0  0  0  0
  4  9  1  0  0  0  0
  9 10  1  0  0  0  0
 10 11  1  0  0  0  0
 11 12  1  0  0  0  0
 12 13  2  0  0  0  0
 12 14  2  0  0  0  0
 14 15  1  0  0  0  0
 15 16  1  0  0  0  0
 12 17  2  0  0  0  0
 17 18  1  0  0  0  0
 18 19  1  0  0  0  0
  1 20  1  0  0  0  0
  1 21  1  0  0  0  0
  1 22  1  0  0  0  0
  2 23  1  0  0  0  0
  2 24  1  0  0  0  0
  7 25  1  0  0  0  0
  7 26  1  0  0  0  0
  8 27  1  0  0  0  0
  8 28  1  0  0  0  0
  8 29  1  0  0  0  0
 10 30  1  0  0  0  0
 10 31  1  0  0  0  0
 15 32  1  0  0  0  0
 15 33  1  0  0  0  0
 16 34  1  0  0  0  0
 16 35  1  0  0  0  0
 16 36  1  0  0  0  0
 18 37  1  0  0  0  0
 18 38  1  0  0  0  0
 19 39  1  0  0  0  0
 19 40  1  0  0  0  0
 19 41  1  0  0  0  0
M  END
