 xtb: 6.7.1 (edcfbbe)
          04032520143D

 26 28  0     0  0            999 V2000
    3.4447    0.6923   -0.6044 C   0  0  0  0  0  0  0  0  0  0  0  0
    3.4453   -0.6918   -0.6032 C   0  0  0  0  0  0  0  0  0  0  0  0
    2.3369   -1.3836   -0.1443 C   0  0  0  0  0  0  0  0  0  0  0  0
    1.2288   -0.6969    0.3247 C   0  0  0  0  0  0  0  0  0  0  0  0
    1.2285    0.6971    0.3242 C   0  0  0  0  0  0  0  0  0  0  0  0
    2.3358    1.3840   -0.1461 C   0  0  0  0  0  0  0  0  0  0  0  0
   -0.0001    1.3990    0.8300 C   0  0  0  0  0  0  0  0  0  0  0  0
   -1.2288    0.6969    0.3247 C   0  0  0  0  0  0  0  0  0  0  0  0
   -2.3368    1.3837   -0.1444 C   0  0  0  0  0  0  0  0  0  0  0  0
   -3.4453    0.6919   -0.6032 C   0  0  0  0  0  0  0  0  0  0  0  0
   -3.4447   -0.6922   -0.6043 C   0  0  0  0  0  0  0  0  0  0  0  0
   -2.3359   -1.3839   -0.1461 C   0  0  0  0  0  0  0  0  0  0  0  0
   -1.2285   -0.6971    0.3242 C   0  0  0  0  0  0  0  0  0  0  0  0
    0.0001   -1.3991    0.8298 C   0  0  0  0  0  0  0  0  0  0  0  0
    4.3059    1.2340   -0.9662 H   0  0  0  0  0  0  0  0  0  0  0  0
    4.3072   -1.2333   -0.9638 H   0  0  0  0  0  0  0  0  0  0  0  0
    2.3347   -2.4643   -0.1495 H   0  0  0  0  0  0  0  0  0  0  0  0
    2.3328    2.4646   -0.1529 H   0  0  0  0  0  0  0  0  0  0  0  0
    0.0003    1.3563    1.9260 H   0  0  0  0  0  0  0  0  0  0  0  0
   -0.0003    2.4488    0.5350 H   0  0  0  0  0  0  0  0  0  0  0  0
   -2.3347    2.4643   -0.1494 H   0  0  0  0  0  0  0  0  0  0  0  0
   -4.3072    1.2334   -0.9636 H   0  0  0  0  0  0  0  0  0  0  0  0
   -4.3061   -1.2338   -0.9660 H   0  0  0  0  0  0  0  0  0  0  0  0
   -2.3331   -2.4646   -0.1528 H   0  0  0  0  0  0  0  0  0  0  0  0
   -0.0001   -1.3567    1.9258 H   0  0  0  0  0  0  0  0  0  0  0  0
    0.0003   -2.4489    0.5347 H   0  0  0  0  0  0  0  0  0  0  0  0
  1  2  4  0  0  0  0
  2  3  4  0  0  0  0
  3  4  4  0  0  0  0
  4  5  4  0  0  0  0
  1  6  4  0  0  0  0
  5  6  4  0  0  0  0
  5  7  1  0  0  0  0
  7  8  1  0  0  0  0
  8  9  4  0  0  0  0
  9 10  4  0  0  0  0
 10 11  4  0  0  0  0
 11 12  4  0  0  0  0
  8 13  4  0  0  0  0
 12 13  4  0  0  0  0
  4 14  1  0  0  0  0
 13 14  1  0  0  0  0
  1 15  1  0  0  0  0
  2 16  1  0  0  0  0
  3 17  1  0  0  0  0
  6 18  1  0  0  0  0
  7 19  1  0  0  0  0
  7 20  1  0  0  0  0
  9 21  1  0  0  0  0
 10 22  1  0  0  0  0
 11 23  1  0  0  0  0
 12 24  1  0  0  0  0
 14 25  1  0  0  0  0
 14 26  1  0  0  0  0
M  END
