 xtb: 6.7.1 (edcfbbe)
          04032520173D

 19 19  0     0  0            999 V2000
   -3.0752    0.3670    0.0043 C   0  0  0  0  0  0  0  0  0  0  0  0
   -1.6162    0.0232   -0.0021 C   0  0  0  0  0  0  0  0  0  0  0  0
   -1.1798   -1.2932   -0.0021 C   0  0  0  0  0  0  0  0  0  0  0  0
    0.1737   -1.5806   -0.0019 C   0  0  0  0  0  0  0  0  0  0  0  0
    1.1314   -0.5787   -0.0008 C   0  0  0  0  0  0  0  0  0  0  0  0
    0.6925    0.7492   -0.0009 C   0  0  0  0  0  0  0  0  0  0  0  0
   -0.6654    1.0353   -0.0021 C   0  0  0  0  0  0  0  0  0  0  0  0
    1.6268    1.7464   -0.0009 O   0  0  0  0  0  0  0  0  0  0  0  0
    2.5943   -0.9106    0.0039 C   0  0  0  0  0  0  0  0  0  0  0  0
   -3.6831   -0.5300   -0.0745 H   0  0  0  0  0  0  0  0  0  0  0  0
   -3.3364    0.8835    0.9269 H   0  0  0  0  0  0  0  0  0  0  0  0
   -3.3146    1.0270   -0.8275 H   0  0  0  0  0  0  0  0  0  0  0  0
   -1.8991   -2.0986   -0.0030 H   0  0  0  0  0  0  0  0  0  0  0  0
    0.5019   -2.6099   -0.0023 H   0  0  0  0  0  0  0  0  0  0  0  0
   -0.9919    2.0667   -0.0030 H   0  0  0  0  0  0  0  0  0  0  0  0
    1.1895    2.6103   -0.0028 H   0  0  0  0  0  0  0  0  0  0  0  0
    3.1861   -0.0022   -0.0583 H   0  0  0  0  0  0  0  0  0  0  0  0
    2.8578   -1.4396    0.9187 H   0  0  0  0  0  0  0  0  0  0  0  0
    2.8395   -1.5530   -0.8400 H   0  0  0  0  0  0  0  0  0  0  0  0
  1  2  1  0  0  0  0
  2  3  4  0  0  0  0
  3  4  4  0  0  0  0
  4  5  4  0  0  0  0
  5  6  4  0  0  0  0
  2  7  4  0  0  0  0
  6  7  4  0  0  0  0
  6  8  1  0  0  0  0
  5  9  1  0  0  0  0
  1 10  1  0  0  0  0
  1 11  1  0  0  0  0
  1 12  1  0  0  0  0
  3 13  1  0  0  0  0
  4 14  1  0  0  0  0
  7 15  1  0  0  0  0
  8 16  1  0  0  0  0
  9 17  1  0  0  0  0
  9 18  1  0  0  0  0
  9 19  1  0  0  0  0
M  END
