 xtb: 6.7.1 (edcfbbe)
          04092505213D

 41 40  0     0  0            999 V2000
    2.1116    2.3165    1.3030 C   0  0  0  0  0  0  0  0  0  0  0  0
    1.5859    1.0591    1.9686 C   0  0  0  0  0  0  0  0  0  0  0  0
    2.3828   -0.0826    1.6010 O   0  0  0  0  0  0  0  0  0  0  0  0
    1.9489   -1.1597    0.5118 P   0  0  0  0  0  0  0  0  0  0  0  0
    0.1870   -1.9630    0.7971 S   0  0  0  0  0  0  0  0  0  0  0  0
    3.0967   -2.2245    0.6178 O   0  0  0  0  0  0  0  0  0  0  0  0
    4.4952   -1.9451    0.3457 C   0  0  0  0  0  0  0  0  0  0  0  0
    5.2263   -1.5290    1.6050 C   0  0  0  0  0  0  0  0  0  0  0  0
    2.2591   -0.2546   -1.4027 S   0  0  0  0  0  0  0  0  0  0  0  0
    0.5496   -0.0972   -1.9444 C   0  0  0  0  0  0  0  0  0  0  0  0
   -0.2952    1.3400   -1.1948 S   0  0  0  0  0  0  0  0  0  0  0  0
   -2.1335    0.4679   -0.6445 P   0  0  0  0  0  0  0  0  0  0  0  0
   -2.6390   -1.2141   -1.4977 S   0  0  0  0  0  0  0  0  0  0  0  0
   -3.2100    1.5895   -0.9668 O   0  0  0  0  0  0  0  0  0  0  0  0
   -3.1706    2.9227   -0.3982 C   0  0  0  0  0  0  0  0  0  0  0  0
   -2.6663    3.9271   -1.4157 C   0  0  0  0  0  0  0  0  0  0  0  0
   -1.9666    0.4694    0.9498 O   0  0  0  0  0  0  0  0  0  0  0  0
   -2.7378   -0.4072    1.7885 C   0  0  0  0  0  0  0  0  0  0  0  0
   -4.2033   -0.0250    1.8057 C   0  0  0  0  0  0  0  0  0  0  0  0
    1.5490    3.1699    1.6669 H   0  0  0  0  0  0  0  0  0  0  0  0
    3.1624    2.4506    1.5427 H   0  0  0  0  0  0  0  0  0  0  0  0
    1.9989    2.2590    0.2229 H   0  0  0  0  0  0  0  0  0  0  0  0
    0.5397    0.8706    1.7065 H   0  0  0  0  0  0  0  0  0  0  0  0
    1.6744    1.1206    3.0551 H   0  0  0  0  0  0  0  0  0  0  0  0
    4.8808   -2.8882   -0.0454 H   0  0  0  0  0  0  0  0  0  0  0  0
    4.5560   -1.1729   -0.4258 H   0  0  0  0  0  0  0  0  0  0  0  0
    5.1138   -2.2926    2.3699 H   0  0  0  0  0  0  0  0  0  0  0  0
    6.2800   -1.4039    1.3758 H   0  0  0  0  0  0  0  0  0  0  0  0
    4.8271   -0.5928    1.9841 H   0  0  0  0  0  0  0  0  0  0  0  0
   -0.0134   -0.9998   -1.6929 H   0  0  0  0  0  0  0  0  0  0  0  0
    0.5884    0.0557   -3.0199 H   0  0  0  0  0  0  0  0  0  0  0  0
   -4.2060    3.1309   -0.1219 H   0  0  0  0  0  0  0  0  0  0  0  0
   -2.5428    2.9121    0.4963 H   0  0  0  0  0  0  0  0  0  0  0  0
   -2.7566    4.9253   -0.9989 H   0  0  0  0  0  0  0  0  0  0  0  0
   -1.6247    3.7358   -1.6611 H   0  0  0  0  0  0  0  0  0  0  0  0
   -3.2599    3.8628   -2.3233 H   0  0  0  0  0  0  0  0  0  0  0  0
   -2.6024   -1.4334    1.4312 H   0  0  0  0  0  0  0  0  0  0  0  0
   -2.2760   -0.3067    2.7720 H   0  0  0  0  0  0  0  0  0  0  0  0
   -4.7379   -0.6899    2.4768 H   0  0  0  0  0  0  0  0  0  0  0  0
   -4.3238    1.0016    2.1422 H   0  0  0  0  0  0  0  0  0  0  0  0
   -4.6209   -0.1245    0.8037 H   0  0  0  0  0  0  0  0  0  0  0  0
  1  2  1  0  0  0  0
  2  3  1  0  0  0  0
  3  4  2  0  0  0  0
  4  5  2  0  0  0  0
  4  6  2  0  0  0  0
  6  7  1  0  0  0  0
  7  8  1  0  0  0  0
  4  9  1  0  0  0  0
  9 10  1  0  0  0  0
 10 11  1  0  0  0  0
 11 12  1  0  0  0  0
 12 13  2  0  0  0  0
 12 14  2  0  0  0  0
 14 15  1  0  0  0  0
 15 16  1  0  0  0  0
 12 17  1  0  0  0  0
 17 18  1  0  0  0  0
 18 19  1  0  0  0  0
  1 20  1  0  0  0  0
  1 21  1  0  0  0  0
  1 22  1  0  0  0  0
  2 23  1  0  0  0  0
  2 24  1  0  0  0  0
  7 25  1  0  0  0  0
  7 26  1  0  0  0  0
  8 27  1  0  0  0  0
  8 28  1  0  0  0  0
  8 29  1  0  0  0  0
 10 30  1  0  0  0  0
 10 31  1  0  0  0  0
 15 32  1  0  0  0  0
 15 33  1  0  0  0  0
 16 34  1  0  0  0  0
 16 35  1  0  0  0  0
 16 36  1  0  0  0  0
 18 37  1  0  0  0  0
 18 38  1  0  0  0  0
 19 39  1  0  0  0  0
 19 40  1  0  0  0  0
 19 41  1  0  0  0  0
M  END
