 xtb: 6.7.1 (edcfbbe)
          04092507313D

 38 37  0     0  0            999 V2000
    4.2370   -1.8899    1.1639 C   0  0  0  0  0  0  0  0  0  0  0  0
    2.7875   -1.9925    0.7344 C   0  0  0  0  0  0  0  0  0  0  0  0
    2.5812   -1.0781   -0.3603 O   0  0  0  0  0  0  0  0  0  0  0  0
    1.4118   -1.0628   -0.9460 C   0  0  0  0  0  0  0  0  0  0  0  0
    0.4793   -1.7863   -0.6372 O   0  0  0  0  0  0  0  0  0  0  0  0
    1.3258   -0.0423   -2.0574 C   0  0  0  0  0  0  0  0  0  0  0  0
    0.1726    0.9245   -1.7989 C   0  0  0  0  0  0  0  0  0  0  0  0
    0.0582    1.6003   -2.6526 H   0  0  0  0  0  0  0  0  0  0  0  0
    0.3350    1.7814   -0.5517 C   0  0  0  0  0  0  0  0  0  0  0  0
   -0.6056    2.3329   -0.0179 O   0  0  0  0  0  0  0  0  0  0  0  0
    1.5811    1.8756   -0.1738 O   0  0  0  0  0  0  0  0  0  0  0  0
    1.8771    2.6420    1.0119 C   0  0  0  0  0  0  0  0  0  0  0  0
    3.3798    2.8217    1.0822 C   0  0  0  0  0  0  0  0  0  0  0  0
   -1.4596    0.1056   -1.7074 S   0  0  0  0  0  0  0  0  0  0  0  0
   -1.6434   -0.5114    0.3261 P   0  0  0  0  0  0  0  0  0  0  0  0
   -0.3571   -0.1779    1.7657 S   0  0  0  0  0  0  0  0  0  0  0  0
   -3.0936    0.1011    0.6763 O   0  0  0  0  0  0  0  0  0  0  0  0
   -3.3427    1.4806    0.9385 C   0  0  0  0  0  0  0  0  0  0  0  0
   -2.0519   -2.0358    0.2960 O   0  0  0  0  0  0  0  0  0  0  0  0
   -2.9710   -2.5916   -0.6609 C   0  0  0  0  0  0  0  0  0  0  0  0
    4.4518   -0.8847    1.5130 H   0  0  0  0  0  0  0  0  0  0  0  0
    4.4195   -2.5921    1.9702 H   0  0  0  0  0  0  0  0  0  0  0  0
    4.8903   -2.1222    0.3283 H   0  0  0  0  0  0  0  0  0  0  0  0
    2.0995   -1.7193    1.5414 H   0  0  0  0  0  0  0  0  0  0  0  0
    2.5310   -3.0002    0.3924 H   0  0  0  0  0  0  0  0  0  0  0  0
    1.1321   -0.5694   -2.9929 H   0  0  0  0  0  0  0  0  0  0  0  0
    2.2656    0.5047   -2.1145 H   0  0  0  0  0  0  0  0  0  0  0  0
    1.3457    3.5962    0.9483 H   0  0  0  0  0  0  0  0  0  0  0  0
    1.4884    2.0831    1.8698 H   0  0  0  0  0  0  0  0  0  0  0  0
    3.7320    3.3863    0.2243 H   0  0  0  0  0  0  0  0  0  0  0  0
    3.6320    3.3550    1.9923 H   0  0  0  0  0  0  0  0  0  0  0  0
    3.8650    1.8504    1.0892 H   0  0  0  0  0  0  0  0  0  0  0  0
   -2.6304    1.8615    1.6715 H   0  0  0  0  0  0  0  0  0  0  0  0
   -4.3564    1.5236    1.3286 H   0  0  0  0  0  0  0  0  0  0  0  0
   -3.2526    2.0601    0.0200 H   0  0  0  0  0  0  0  0  0  0  0  0
   -3.1190   -3.6199   -0.3415 H   0  0  0  0  0  0  0  0  0  0  0  0
   -2.5283   -2.5584   -1.6562 H   0  0  0  0  0  0  0  0  0  0  0  0
   -3.9101   -2.0406   -0.6451 H   0  0  0  0  0  0  0  0  0  0  0  0
  1  2  1  0  0  0  0
  2  3  1  0  0  0  0
  3  4  4  0  0  0  0
  4  5  2  0  0  0  0
  4  6  1  0  0  0  0
  6  7  1  0  0  0  0
  7  8  1  0  0  0  0
  7  9  1  0  0  0  0
  9 10  2  0  0  0  0
  9 11  4  0  0  0  0
 11 12  1  0  0  0  0
 12 13  1  0  0  0  0
  7 14  1  0  0  0  0
 14 15  1  0  0  0  0
 15 16  2  0  0  0  0
 15 17  1  0  0  0  0
 17 18  1  0  0  0  0
 15 19  2  0  0  0  0
 19 20  1  0  0  0  0
  1 21  1  0  0  0  0
  1 22  1  0  0  0  0
  1 23  1  0  0  0  0
  2 24  1  0  0  0  0
  2 25  1  0  0  0  0
  6 26  1  0  0  0  0
  6 27  1  0  0  0  0
 12 28  1  0  0  0  0
 12 29  1  0  0  0  0
 13 30  1  0  0  0  0
 13 31  1  0  0  0  0
 13 32  1  0  0  0  0
 18 33  1  0  0  0  0
 18 34  1  0  0  0  0
 18 35  1  0  0  0  0
 20 36  1  0  0  0  0
 20 37  1  0  0  0  0
 20 38  1  0  0  0  0
M  END
