 xtb: 6.7.1 (edcfbbe)
          04092505203D

 41 40  0     0  0            999 V2000
    4.7225   -0.5501   -2.2257 C   0  0  0  0  0  0  0  0  0  0  0  0
    4.0818   -1.6630   -1.4237 C   0  0  0  0  0  0  0  0  0  0  0  0
    3.5604   -1.2127   -0.1585 O   0  0  0  0  0  0  0  0  0  0  0  0
    2.5462   -0.0059    0.0475 P   0  0  0  0  0  0  0  0  0  0  0  0
    3.2265    1.8240   -0.0534 S   0  0  0  0  0  0  0  0  0  0  0  0
    2.0225   -0.2962    1.5046 O   0  0  0  0  0  0  0  0  0  0  0  0
    1.5416   -1.5943    1.9349 C   0  0  0  0  0  0  0  0  0  0  0  0
    0.6258   -1.3803    3.1218 C   0  0  0  0  0  0  0  0  0  0  0  0
    0.9656   -0.4837   -1.3109 S   0  0  0  0  0  0  0  0  0  0  0  0
    0.1984    1.1510   -1.2869 C   0  0  0  0  0  0  0  0  0  0  0  0
   -0.6206    1.5256    0.2861 S   0  0  0  0  0  0  0  0  0  0  0  0
   -2.2420    0.1953    0.0106 P   0  0  0  0  0  0  0  0  0  0  0  0
   -2.9744    0.0450   -1.8058 S   0  0  0  0  0  0  0  0  0  0  0  0
   -3.2852    0.6070    1.1358 O   0  0  0  0  0  0  0  0  0  0  0  0
   -4.3304    1.5664    0.9033 C   0  0  0  0  0  0  0  0  0  0  0  0
   -3.7869    2.9657    0.6981 C   0  0  0  0  0  0  0  0  0  0  0  0
   -1.6141   -1.1260    0.6179 O   0  0  0  0  0  0  0  0  0  0  0  0
   -2.1331   -2.4353    0.3014 C   0  0  0  0  0  0  0  0  0  0  0  0
   -3.5228   -2.6423    0.8651 C   0  0  0  0  0  0  0  0  0  0  0  0
    5.4868   -0.0488   -1.6366 H   0  0  0  0  0  0  0  0  0  0  0  0
    5.1724   -0.9646   -3.1220 H   0  0  0  0  0  0  0  0  0  0  0  0
    3.9735    0.1867   -2.5124 H   0  0  0  0  0  0  0  0  0  0  0  0
    4.8120   -2.4237   -1.1420 H   0  0  0  0  0  0  0  0  0  0  0  0
    3.2628   -2.1218   -1.9845 H   0  0  0  0  0  0  0  0  0  0  0  0
    1.0144   -2.0659    1.0999 H   0  0  0  0  0  0  0  0  0  0  0  0
    2.4129   -2.1965    2.1994 H   0  0  0  0  0  0  0  0  0  0  0  0
    1.1526   -0.8372    3.9011 H   0  0  0  0  0  0  0  0  0  0  0  0
   -0.2466   -0.8042    2.8233 H   0  0  0  0  0  0  0  0  0  0  0  0
    0.3065   -2.3440    3.5056 H   0  0  0  0  0  0  0  0  0  0  0  0
   -0.5345    1.1679   -2.0939 H   0  0  0  0  0  0  0  0  0  0  0  0
    0.9684    1.9108   -1.4252 H   0  0  0  0  0  0  0  0  0  0  0  0
   -4.9044    1.2468    0.0275 H   0  0  0  0  0  0  0  0  0  0  0  0
   -4.9500    1.5019    1.7987 H   0  0  0  0  0  0  0  0  0  0  0  0
   -3.2216    3.0137   -0.2321 H   0  0  0  0  0  0  0  0  0  0  0  0
   -4.6119    3.6688    0.6443 H   0  0  0  0  0  0  0  0  0  0  0  0
   -3.1296    3.2413    1.5192 H   0  0  0  0  0  0  0  0  0  0  0  0
   -2.1332   -2.5523   -0.7870 H   0  0  0  0  0  0  0  0  0  0  0  0
   -1.4106   -3.1196    0.7481 H   0  0  0  0  0  0  0  0  0  0  0  0
   -4.2270   -1.9758    0.3684 H   0  0  0  0  0  0  0  0  0  0  0  0
   -3.8309   -3.6692    0.6951 H   0  0  0  0  0  0  0  0  0  0  0  0
   -3.5321   -2.4317    1.9313 H   0  0  0  0  0  0  0  0  0  0  0  0
  1  2  1  0  0  0  0
  2  3  1  0  0  0  0
  3  4  2  0  0  0  0
  4  5  2  0  0  0  0
  4  6  2  0  0  0  0
  6  7  1  0  0  0  0
  7  8  1  0  0  0  0
  4  9  1  0  0  0  0
  9 10  1  0  0  0  0
 10 11  1  0  0  0  0
 11 12  1  0  0  0  0
 12 13  2  0  0  0  0
 12 14  2  0  0  0  0
 14 15  1  0  0  0  0
 15 16  1  0  0  0  0
 12 17  2  0  0  0  0
 17 18  1  0  0  0  0
 18 19  1  0  0  0  0
  1 20  1  0  0  0  0
  1 21  1  0  0  0  0
  1 22  1  0  0  0  0
  2 23  1  0  0  0  0
  2 24  1  0  0  0  0
  7 25  1  0  0  0  0
  7 26  1  0  0  0  0
  8 27  1  0  0  0  0
  8 28  1  0  0  0  0
  8 29  1  0  0  0  0
 10 30  1  0  0  0  0
 10 31  1  0  0  0  0
 15 32  1  0  0  0  0
 15 33  1  0  0  0  0
 16 34  1  0  0  0  0
 16 35  1  0  0  0  0
 16 36  1  0  0  0  0
 18 37  1  0  0  0  0
 18 38  1  0  0  0  0
 19 39  1  0  0  0  0
 19 40  1  0  0  0  0
 19 41  1  0  0  0  0
M  END
