 xtb: 6.7.1 (edcfbbe)
          04092505213D

 41 40  0     0  0            999 V2000
    4.2867   -0.5620   -2.1325 C   0  0  0  0  0  0  0  0  0  0  0  0
    4.4796   -0.6288   -0.6310 C   0  0  0  0  0  0  0  0  0  0  0  0
    3.2256   -0.6344    0.0711 O   0  0  0  0  0  0  0  0  0  0  0  0
    2.3014    0.6670    0.1328 P   0  0  0  0  0  0  0  0  0  0  0  0
    3.2975    2.3492    0.2652 S   0  0  0  0  0  0  0  0  0  0  0  0
    1.3352    0.3442    1.3462 O   0  0  0  0  0  0  0  0  0  0  0  0
    1.8190    0.2813    2.7083 C   0  0  0  0  0  0  0  0  0  0  0  0
    2.1113   -1.1516    3.1044 C   0  0  0  0  0  0  0  0  0  0  0  0
    0.9054    0.4891   -1.4401 S   0  0  0  0  0  0  0  0  0  0  0  0
    0.4363   -1.2558   -1.2073 C   0  0  0  0  0  0  0  0  0  0  0  0
   -0.7190   -1.5367    0.1562 S   0  0  0  0  0  0  0  0  0  0  0  0
   -2.2353   -0.2008   -0.5072 P   0  0  0  0  0  0  0  0  0  0  0  0
   -2.4958   -0.1113   -2.4423 S   0  0  0  0  0  0  0  0  0  0  0  0
   -1.9166    1.2071    0.1269 O   0  0  0  0  0  0  0  0  0  0  0  0
   -1.7750    1.4251    1.5511 C   0  0  0  0  0  0  0  0  0  0  0  0
   -3.0653    1.9500    2.1450 C   0  0  0  0  0  0  0  0  0  0  0  0
   -3.4933   -0.6827    0.3354 O   0  0  0  0  0  0  0  0  0  0  0  0
   -4.1627   -1.9226    0.0196 C   0  0  0  0  0  0  0  0  0  0  0  0
   -5.5061   -1.9174    0.7199 C   0  0  0  0  0  0  0  0  0  0  0  0
    3.6716   -1.3878   -2.4807 H   0  0  0  0  0  0  0  0  0  0  0  0
    3.8005    0.3762   -2.4008 H   0  0  0  0  0  0  0  0  0  0  0  0
    5.2546   -0.6063   -2.6214 H   0  0  0  0  0  0  0  0  0  0  0  0
    5.0654    0.2281   -0.2837 H   0  0  0  0  0  0  0  0  0  0  0  0
    4.9610   -1.5588   -0.3257 H   0  0  0  0  0  0  0  0  0  0  0  0
    2.7060    0.9170    2.7971 H   0  0  0  0  0  0  0  0  0  0  0  0
    1.0104    0.7022    3.3091 H   0  0  0  0  0  0  0  0  0  0  0  0
    1.2310   -1.7666    2.9360 H   0  0  0  0  0  0  0  0  0  0  0  0
    2.9330   -1.5487    2.5147 H   0  0  0  0  0  0  0  0  0  0  0  0
    2.3784   -1.1820    4.1560 H   0  0  0  0  0  0  0  0  0  0  0  0
    1.3190   -1.8546   -0.9981 H   0  0  0  0  0  0  0  0  0  0  0  0
   -0.0395   -1.5485   -2.1425 H   0  0  0  0  0  0  0  0  0  0  0  0
   -1.4718    0.4861    2.0232 H   0  0  0  0  0  0  0  0  0  0  0  0
   -0.9672    2.1562    1.6356 H   0  0  0  0  0  0  0  0  0  0  0  0
   -2.9098    2.1675    3.1971 H   0  0  0  0  0  0  0  0  0  0  0  0
   -3.3672    2.8586    1.6313 H   0  0  0  0  0  0  0  0  0  0  0  0
   -3.8538    1.2096    2.0412 H   0  0  0  0  0  0  0  0  0  0  0  0
   -4.2753   -1.9880   -1.0674 H   0  0  0  0  0  0  0  0  0  0  0  0
   -3.5332   -2.7465    0.3659 H   0  0  0  0  0  0  0  0  0  0  0  0
   -6.0252   -2.8440    0.4985 H   0  0  0  0  0  0  0  0  0  0  0  0
   -5.3672   -1.8313    1.7937 H   0  0  0  0  0  0  0  0  0  0  0  0
   -6.1054   -1.0804    0.3724 H   0  0  0  0  0  0  0  0  0  0  0  0
  1  2  1  0  0  0  0
  2  3  1  0  0  0  0
  3  4  2  0  0  0  0
  4  5  2  0  0  0  0
  4  6  2  0  0  0  0
  6  7  1  0  0  0  0
  7  8  1  0  0  0  0
  4  9  1  0  0  0  0
  9 10  1  0  0  0  0
 10 11  1  0  0  0  0
 11 12  1  0  0  0  0
 12 13  2  0  0  0  0
 12 14  2  0  0  0  0
 14 15  1  0  0  0  0
 15 16  1  0  0  0  0
 12 17  2  0  0  0  0
 17 18  1  0  0  0  0
 18 19  1  0  0  0  0
  1 20  1  0  0  0  0
  1 21  1  0  0  0  0
  1 22  1  0  0  0  0
  2 23  1  0  0  0  0
  2 24  1  0  0  0  0
  7 25  1  0  0  0  0
  7 26  1  0  0  0  0
  8 27  1  0  0  0  0
  8 28  1  0  0  0  0
  8 29  1  0  0  0  0
 10 30  1  0  0  0  0
 10 31  1  0  0  0  0
 15 32  1  0  0  0  0
 15 33  1  0  0  0  0
 16 34  1  0  0  0  0
 16 35  1  0  0  0  0
 16 36  1  0  0  0  0
 18 37  1  0  0  0  0
 18 38  1  0  0  0  0
 19 39  1  0  0  0  0
 19 40  1  0  0  0  0
 19 41  1  0  0  0  0
M  END
