 xtb: 6.7.1 (edcfbbe)
          04092505213D

 41 40  0     0  0            999 V2000
    2.1272    2.8372    1.5431 C   0  0  0  0  0  0  0  0  0  0  0  0
    2.8384    1.5048    1.4285 C   0  0  0  0  0  0  0  0  0  0  0  0
    1.8436    0.4471    1.4869 O   0  0  0  0  0  0  0  0  0  0  0  0
    1.9351   -0.8676    0.6238 P   0  0  0  0  0  0  0  0  0  0  0  0
    0.4202   -2.0325    1.0487 S   0  0  0  0  0  0  0  0  0  0  0  0
    3.3999   -1.3698    0.9823 O   0  0  0  0  0  0  0  0  0  0  0  0
    4.1727   -2.3164    0.2210 C   0  0  0  0  0  0  0  0  0  0  0  0
    3.4343   -3.6157   -0.0225 C   0  0  0  0  0  0  0  0  0  0  0  0
    2.1384   -0.2805   -1.4191 S   0  0  0  0  0  0  0  0  0  0  0  0
    0.3870   -0.0928   -1.7866 C   0  0  0  0  0  0  0  0  0  0  0  0
   -0.3482    1.2741   -0.8309 S   0  0  0  0  0  0  0  0  0  0  0  0
   -2.3084    0.5031   -0.5215 P   0  0  0  0  0  0  0  0  0  0  0  0
   -2.6064   -1.3622   -1.0234 S   0  0  0  0  0  0  0  0  0  0  0  0
   -3.2761    1.4314   -1.3455 O   0  0  0  0  0  0  0  0  0  0  0  0
   -3.2680    2.8809   -1.2643 C   0  0  0  0  0  0  0  0  0  0  0  0
   -2.7199    3.4682   -2.5497 C   0  0  0  0  0  0  0  0  0  0  0  0
   -2.6429    0.9837    0.9605 O   0  0  0  0  0  0  0  0  0  0  0  0
   -1.9866    0.5346    2.1566 C   0  0  0  0  0  0  0  0  0  0  0  0
   -2.5868   -0.7598    2.6661 C   0  0  0  0  0  0  0  0  0  0  0  0
    1.5625    2.8797    2.4699 H   0  0  0  0  0  0  0  0  0  0  0  0
    2.8643    3.6335    1.5342 H   0  0  0  0  0  0  0  0  0  0  0  0
    1.4435    2.9700    0.7081 H   0  0  0  0  0  0  0  0  0  0  0  0
    3.5245    1.3386    2.2605 H   0  0  0  0  0  0  0  0  0  0  0  0
    3.3843    1.4258    0.4841 H   0  0  0  0  0  0  0  0  0  0  0  0
    4.4503   -1.8459   -0.7262 H   0  0  0  0  0  0  0  0  0  0  0  0
    5.0619   -2.4720    0.8344 H   0  0  0  0  0  0  0  0  0  0  0  0
    4.0903   -4.3154   -0.5302 H   0  0  0  0  0  0  0  0  0  0  0  0
    3.1051   -4.0485    0.9195 H   0  0  0  0  0  0  0  0  0  0  0  0
    2.5562   -3.4399   -0.6431 H   0  0  0  0  0  0  0  0  0  0  0  0
   -0.1534   -1.0115   -1.5377 H   0  0  0  0  0  0  0  0  0  0  0  0
    0.3184    0.1290   -2.8487 H   0  0  0  0  0  0  0  0  0  0  0  0
   -4.3122    3.1585   -1.1128 H   0  0  0  0  0  0  0  0  0  0  0  0
   -2.6769    3.1899   -0.3996 H   0  0  0  0  0  0  0  0  0  0  0  0
   -3.2753    3.0813   -3.3995 H   0  0  0  0  0  0  0  0  0  0  0  0
   -2.8210    4.5483   -2.5167 H   0  0  0  0  0  0  0  0  0  0  0  0
   -1.6698    3.2130   -2.6681 H   0  0  0  0  0  0  0  0  0  0  0  0
   -0.9153    0.4150    1.9653 H   0  0  0  0  0  0  0  0  0  0  0  0
   -2.1421    1.3498    2.8661 H   0  0  0  0  0  0  0  0  0  0  0  0
   -2.1331   -1.0144    3.6185 H   0  0  0  0  0  0  0  0  0  0  0  0
   -3.6610   -0.6530    2.7897 H   0  0  0  0  0  0  0  0  0  0  0  0
   -2.3914   -1.5685    1.9636 H   0  0  0  0  0  0  0  0  0  0  0  0
  1  2  1  0  0  0  0
  2  3  1  0  0  0  0
  3  4  2  0  0  0  0
  4  5  2  0  0  0  0
  4  6  2  0  0  0  0
  6  7  1  0  0  0  0
  7  8  1  0  0  0  0
  4  9  1  0  0  0  0
  9 10  1  0  0  0  0
 10 11  1  0  0  0  0
 11 12  1  0  0  0  0
 12 13  2  0  0  0  0
 12 14  2  0  0  0  0
 14 15  1  0  0  0  0
 15 16  1  0  0  0  0
 12 17  2  0  0  0  0
 17 18  1  0  0  0  0
 18 19  1  0  0  0  0
  1 20  1  0  0  0  0
  1 21  1  0  0  0  0
  1 22  1  0  0  0  0
  2 23  1  0  0  0  0
  2 24  1  0  0  0  0
  7 25  1  0  0  0  0
  7 26  1  0  0  0  0
  8 27  1  0  0  0  0
  8 28  1  0  0  0  0
  8 29  1  0  0  0  0
 10 30  1  0  0  0  0
 10 31  1  0  0  0  0
 15 32  1  0  0  0  0
 15 33  1  0  0  0  0
 16 34  1  0  0  0  0
 16 35  1  0  0  0  0
 16 36  1  0  0  0  0
 18 37  1  0  0  0  0
 18 38  1  0  0  0  0
 19 39  1  0  0  0  0
 19 40  1  0  0  0  0
 19 41  1  0  0  0  0
M  END
