 xtb: 6.7.1 (edcfbbe)
          04092505203D

 41 40  0     0  0            999 V2000
    5.8037   -0.6135   -0.9078 C   0  0  0  0  0  0  0  0  0  0  0  0
    4.3179   -0.8986   -0.9964 C   0  0  0  0  0  0  0  0  0  0  0  0
    3.6188    0.1841   -0.3557 O   0  0  0  0  0  0  0  0  0  0  0  0
    2.0695    0.4411   -0.6205 P   0  0  0  0  0  0  0  0  0  0  0  0
    1.6262    0.5482   -2.5235 S   0  0  0  0  0  0  0  0  0  0  0  0
    1.8468    1.7905    0.1511 O   0  0  0  0  0  0  0  0  0  0  0  0
    1.6875    1.9482    1.5798 C   0  0  0  0  0  0  0  0  0  0  0  0
    2.8336    1.3579    2.3710 C   0  0  0  0  0  0  0  0  0  0  0  0
    1.1344   -1.1386    0.4797 S   0  0  0  0  0  0  0  0  0  0  0  0
    0.0787   -1.8485   -0.8179 C   0  0  0  0  0  0  0  0  0  0  0  0
   -1.6238   -2.1467   -0.2735 S   0  0  0  0  0  0  0  0  0  0  0  0
   -2.1502   -0.2114    0.3528 P   0  0  0  0  0  0  0  0  0  0  0  0
   -1.3193    1.3577   -0.5081 S   0  0  0  0  0  0  0  0  0  0  0  0
   -1.8537   -0.3700    1.8987 O   0  0  0  0  0  0  0  0  0  0  0  0
   -1.9595    0.7243    2.8348 C   0  0  0  0  0  0  0  0  0  0  0  0
   -3.3543    0.8128    3.4201 C   0  0  0  0  0  0  0  0  0  0  0  0
   -3.7395   -0.1958    0.3104 O   0  0  0  0  0  0  0  0  0  0  0  0
   -4.4795    0.2103   -0.8532 C   0  0  0  0  0  0  0  0  0  0  0  0
   -4.2690   -0.7294   -2.0226 C   0  0  0  0  0  0  0  0  0  0  0  0
    6.0333    0.3204   -1.4131 H   0  0  0  0  0  0  0  0  0  0  0  0
    6.1063   -0.5352    0.1321 H   0  0  0  0  0  0  0  0  0  0  0  0
    6.3501   -1.4216   -1.3828 H   0  0  0  0  0  0  0  0  0  0  0  0
    4.0578   -1.8255   -0.4773 H   0  0  0  0  0  0  0  0  0  0  0  0
    3.9839   -0.9632   -2.0378 H   0  0  0  0  0  0  0  0  0  0  0  0
    1.6202    3.0304    1.7020 H   0  0  0  0  0  0  0  0  0  0  0  0
    0.7362    1.4886    1.8634 H   0  0  0  0  0  0  0  0  0  0  0  0
    3.7784    1.7616    2.0171 H   0  0  0  0  0  0  0  0  0  0  0  0
    2.7040    1.6064    3.4199 H   0  0  0  0  0  0  0  0  0  0  0  0
    2.8478    0.2745    2.2618 H   0  0  0  0  0  0  0  0  0  0  0  0
    0.4685   -2.8256   -1.0929 H   0  0  0  0  0  0  0  0  0  0  0  0
    0.0910   -1.1673   -1.6745 H   0  0  0  0  0  0  0  0  0  0  0  0
   -1.2201    0.4940    3.6044 H   0  0  0  0  0  0  0  0  0  0  0  0
   -1.6877    1.6543    2.3224 H   0  0  0  0  0  0  0  0  0  0  0  0
   -4.0760    1.0578    2.6449 H   0  0  0  0  0  0  0  0  0  0  0  0
   -3.6290   -0.1391    3.8655 H   0  0  0  0  0  0  0  0  0  0  0  0
   -3.3715    1.5864    4.1816 H   0  0  0  0  0  0  0  0  0  0  0  0
   -5.5173    0.2087   -0.5171 H   0  0  0  0  0  0  0  0  0  0  0  0
   -4.1738    1.2275   -1.1185 H   0  0  0  0  0  0  0  0  0  0  0  0
   -3.2419   -0.6553   -2.3795 H   0  0  0  0  0  0  0  0  0  0  0  0
   -4.4630   -1.7563   -1.7229 H   0  0  0  0  0  0  0  0  0  0  0  0
   -4.9395   -0.4547   -2.8306 H   0  0  0  0  0  0  0  0  0  0  0  0
  1  2  1  0  0  0  0
  2  3  1  0  0  0  0
  3  4  2  0  0  0  0
  4  5  2  0  0  0  0
  4  6  2  0  0  0  0
  6  7  1  0  0  0  0
  7  8  1  0  0  0  0
  4  9  1  0  0  0  0
  9 10  1  0  0  0  0
 10 11  1  0  0  0  0
 11 12  1  0  0  0  0
 12 13  2  0  0  0  0
 12 14  2  0  0  0  0
 14 15  1  0  0  0  0
 15 16  1  0  0  0  0
 12 17  2  0  0  0  0
 17 18  1  0  0  0  0
 18 19  1  0  0  0  0
  1 20  1  0  0  0  0
  1 21  1  0  0  0  0
  1 22  1  0  0  0  0
  2 23  1  0  0  0  0
  2 24  1  0  0  0  0
  7 25  1  0  0  0  0
  7 26  1  0  0  0  0
  8 27  1  0  0  0  0
  8 28  1  0  0  0  0
  8 29  1  0  0  0  0
 10 30  1  0  0  0  0
 10 31  1  0  0  0  0
 15 32  1  0  0  0  0
 15 33  1  0  0  0  0
 16 34  1  0  0  0  0
 16 35  1  0  0  0  0
 16 36  1  0  0  0  0
 18 37  1  0  0  0  0
 18 38  1  0  0  0  0
 19 39  1  0  0  0  0
 19 40  1  0  0  0  0
 19 41  1  0  0  0  0
M  END
