 xtb: 6.7.1 (edcfbbe)
          04092505213D

 41 40  0     0  0            999 V2000
    5.4289   -1.2647   -0.6353 C   0  0  0  0  0  0  0  0  0  0  0  0
    4.2790   -0.4980   -1.2598 C   0  0  0  0  0  0  0  0  0  0  0  0
    3.1447   -0.5699   -0.3769 O   0  0  0  0  0  0  0  0  0  0  0  0
    2.2714    0.7056    0.0259 P   0  0  0  0  0  0  0  0  0  0  0  0
    3.2980    2.3666    0.1816 S   0  0  0  0  0  0  0  0  0  0  0  0
    1.5221    0.2147    1.3275 O   0  0  0  0  0  0  0  0  0  0  0  0
    2.2119    0.0350    2.5870 C   0  0  0  0  0  0  0  0  0  0  0  0
    2.6497   -1.4049    2.7567 C   0  0  0  0  0  0  0  0  0  0  0  0
    0.6489    0.7202   -1.3228 S   0  0  0  0  0  0  0  0  0  0  0  0
    0.1267   -1.0149   -1.1050 C   0  0  0  0  0  0  0  0  0  0  0  0
   -0.9623   -1.2618    0.3083 S   0  0  0  0  0  0  0  0  0  0  0  0
   -2.5907   -0.1071   -0.4370 P   0  0  0  0  0  0  0  0  0  0  0  0
   -2.8313   -0.2241   -2.3786 S   0  0  0  0  0  0  0  0  0  0  0  0
   -2.3928    1.4097   -0.0430 O   0  0  0  0  0  0  0  0  0  0  0  0
   -2.5982    1.9995    1.2618 C   0  0  0  0  0  0  0  0  0  0  0  0
   -1.5917    1.5164    2.2856 C   0  0  0  0  0  0  0  0  0  0  0  0
   -3.7990   -0.5217    0.5067 O   0  0  0  0  0  0  0  0  0  0  0  0
   -4.1786   -1.8758    0.8208 C   0  0  0  0  0  0  0  0  0  0  0  0
   -4.4585   -2.7078   -0.4127 C   0  0  0  0  0  0  0  0  0  0  0  0
    6.2715   -1.2586   -1.3189 H   0  0  0  0  0  0  0  0  0  0  0  0
    5.7270   -0.7955    0.2988 H   0  0  0  0  0  0  0  0  0  0  0  0
    5.1327   -2.2916   -0.4406 H   0  0  0  0  0  0  0  0  0  0  0  0
    3.9773   -0.9366   -2.2136 H   0  0  0  0  0  0  0  0  0  0  0  0
    4.5455    0.5531   -1.4117 H   0  0  0  0  0  0  0  0  0  0  0  0
    3.0604    0.7257    2.6244 H   0  0  0  0  0  0  0  0  0  0  0  0
    1.4773    0.3174    3.3433 H   0  0  0  0  0  0  0  0  0  0  0  0
    3.3839   -1.6707    2.0010 H   0  0  0  0  0  0  0  0  0  0  0  0
    3.0899   -1.5283    3.7412 H   0  0  0  0  0  0  0  0  0  0  0  0
    1.7904   -2.0630    2.6599 H   0  0  0  0  0  0  0  0  0  0  0  0
    0.9986   -1.6459   -0.9547 H   0  0  0  0  0  0  0  0  0  0  0  0
   -0.4108   -1.2736   -2.0179 H   0  0  0  0  0  0  0  0  0  0  0  0
   -2.4893    3.0683    1.0696 H   0  0  0  0  0  0  0  0  0  0  0  0
   -3.6191    1.7807    1.5802 H   0  0  0  0  0  0  0  0  0  0  0  0
   -1.7188    2.0862    3.2010 H   0  0  0  0  0  0  0  0  0  0  0  0
   -1.7390    0.4598    2.4996 H   0  0  0  0  0  0  0  0  0  0  0  0
   -0.5791    1.6623    1.9144 H   0  0  0  0  0  0  0  0  0  0  0  0
   -3.3787   -2.3245    1.4159 H   0  0  0  0  0  0  0  0  0  0  0  0
   -5.0748   -1.7536    1.4318 H   0  0  0  0  0  0  0  0  0  0  0  0
   -3.5491   -2.8292   -0.9990 H   0  0  0  0  0  0  0  0  0  0  0  0
   -4.8213   -3.6855   -0.1128 H   0  0  0  0  0  0  0  0  0  0  0  0
   -5.2043   -2.2222   -1.0375 H   0  0  0  0  0  0  0  0  0  0  0  0
  1  2  1  0  0  0  0
  2  3  1  0  0  0  0
  3  4  2  0  0  0  0
  4  5  2  0  0  0  0
  4  6  2  0  0  0  0
  6  7  1  0  0  0  0
  7  8  1  0  0  0  0
  4  9  1  0  0  0  0
  9 10  1  0  0  0  0
 10 11  1  0  0  0  0
 11 12  1  0  0  0  0
 12 13  2  0  0  0  0
 12 14  2  0  0  0  0
 14 15  1  0  0  0  0
 15 16  1  0  0  0  0
 12 17  2  0  0  0  0
 17 18  1  0  0  0  0
 18 19  1  0  0  0  0
  1 20  1  0  0  0  0
  1 21  1  0  0  0  0
  1 22  1  0  0  0  0
  2 23  1  0  0  0  0
  2 24  1  0  0  0  0
  7 25  1  0  0  0  0
  7 26  1  0  0  0  0
  8 27  1  0  0  0  0
  8 28  1  0  0  0  0
  8 29  1  0  0  0  0
 10 30  1  0  0  0  0
 10 31  1  0  0  0  0
 15 32  1  0  0  0  0
 15 33  1  0  0  0  0
 16 34  1  0  0  0  0
 16 35  1  0  0  0  0
 16 36  1  0  0  0  0
 18 37  1  0  0  0  0
 18 38  1  0  0  0  0
 19 39  1  0  0  0  0
 19 40  1  0  0  0  0
 19 41  1  0  0  0  0
M  END
