 xtb: 6.7.1 (edcfbbe)
          04092505213D

 41 40  0     0  0            999 V2000
    3.9939   -1.2603   -2.7723 C   0  0  0  0  0  0  0  0  0  0  0  0
    4.0218    0.1555   -2.2353 C   0  0  0  0  0  0  0  0  0  0  0  0
    3.4336    0.2585   -0.9239 O   0  0  0  0  0  0  0  0  0  0  0  0
    1.8955   -0.0153   -0.6401 P   0  0  0  0  0  0  0  0  0  0  0  0
    0.6515    0.6700   -1.9804 S   0  0  0  0  0  0  0  0  0  0  0  0
    1.7111    0.6346    0.7851 O   0  0  0  0  0  0  0  0  0  0  0  0
    2.6217    0.3689    1.8852 C   0  0  0  0  0  0  0  0  0  0  0  0
    1.8609    0.5578    3.1806 C   0  0  0  0  0  0  0  0  0  0  0  0
    1.7775   -2.1096   -0.3129 S   0  0  0  0  0  0  0  0  0  0  0  0
   -0.0278   -2.1839   -0.2417 C   0  0  0  0  0  0  0  0  0  0  0  0
   -0.7161   -1.5028    1.3078 S   0  0  0  0  0  0  0  0  0  0  0  0
   -1.7606    0.2301    0.7457 P   0  0  0  0  0  0  0  0  0  0  0  0
   -1.0692    2.0691    0.7484 S   0  0  0  0  0  0  0  0  0  0  0  0
   -2.8697    0.0144    1.8755 O   0  0  0  0  0  0  0  0  0  0  0  0
   -3.6099    1.0834    2.4838 C   0  0  0  0  0  0  0  0  0  0  0  0
   -4.7124    1.5828    1.5712 C   0  0  0  0  0  0  0  0  0  0  0  0
   -2.4053   -0.2777   -0.6184 O   0  0  0  0  0  0  0  0  0  0  0  0
   -2.8804    0.5730   -1.6812 C   0  0  0  0  0  0  0  0  0  0  0  0
   -2.7419   -0.1748   -2.9912 C   0  0  0  0  0  0  0  0  0  0  0  0
    4.4177   -1.9497   -2.0465 H   0  0  0  0  0  0  0  0  0  0  0  0
    2.9691   -1.5594   -2.9850 H   0  0  0  0  0  0  0  0  0  0  0  0
    4.5703   -1.3031   -3.6909 H   0  0  0  0  0  0  0  0  0  0  0  0
    3.4860    0.8338   -2.9064 H   0  0  0  0  0  0  0  0  0  0  0  0
    5.0421    0.5114   -2.0855 H   0  0  0  0  0  0  0  0  0  0  0  0
    3.0017   -0.6525    1.7866 H   0  0  0  0  0  0  0  0  0  0  0  0
    3.4481    1.0761    1.7961 H   0  0  0  0  0  0  0  0  0  0  0  0
    1.0705   -0.1845    3.2686 H   0  0  0  0  0  0  0  0  0  0  0  0
    2.5467    0.4529    4.0148 H   0  0  0  0  0  0  0  0  0  0  0  0
    1.4115    1.5477    3.2027 H   0  0  0  0  0  0  0  0  0  0  0  0
   -0.2944   -3.2368   -0.2698 H   0  0  0  0  0  0  0  0  0  0  0  0
   -0.4481   -1.6415   -1.0889 H   0  0  0  0  0  0  0  0  0  0  0  0
   -4.0087    0.6434    3.3987 H   0  0  0  0  0  0  0  0  0  0  0  0
   -2.9179    1.8957    2.7287 H   0  0  0  0  0  0  0  0  0  0  0  0
   -5.3412    0.7548    1.2540 H   0  0  0  0  0  0  0  0  0  0  0  0
   -5.3166    2.3128    2.1005 H   0  0  0  0  0  0  0  0  0  0  0  0
   -4.2738    2.0579    0.6938 H   0  0  0  0  0  0  0  0  0  0  0  0
   -3.9261    0.8094   -1.4702 H   0  0  0  0  0  0  0  0  0  0  0  0
   -2.2915    1.4966   -1.6836 H   0  0  0  0  0  0  0  0  0  0  0  0
   -3.2407   -1.1373   -2.9227 H   0  0  0  0  0  0  0  0  0  0  0  0
   -3.1961    0.4137   -3.7812 H   0  0  0  0  0  0  0  0  0  0  0  0
   -1.6915   -0.3270   -3.2267 H   0  0  0  0  0  0  0  0  0  0  0  0
  1  2  1  0  0  0  0
  2  3  1  0  0  0  0
  3  4  2  0  0  0  0
  4  5  2  0  0  0  0
  4  6  2  0  0  0  0
  6  7  1  0  0  0  0
  7  8  1  0  0  0  0
  4  9  1  0  0  0  0
  9 10  1  0  0  0  0
 10 11  1  0  0  0  0
 11 12  1  0  0  0  0
 12 13  2  0  0  0  0
 12 14  1  0  0  0  0
 14 15  1  0  0  0  0
 15 16  1  0  0  0  0
 12 17  2  0  0  0  0
 17 18  1  0  0  0  0
 18 19  1  0  0  0  0
  1 20  1  0  0  0  0
  1 21  1  0  0  0  0
  1 22  1  0  0  0  0
  2 23  1  0  0  0  0
  2 24  1  0  0  0  0
  7 25  1  0  0  0  0
  7 26  1  0  0  0  0
  8 27  1  0  0  0  0
  8 28  1  0  0  0  0
  8 29  1  0  0  0  0
 10 30  1  0  0  0  0
 10 31  1  0  0  0  0
 15 32  1  0  0  0  0
 15 33  1  0  0  0  0
 16 34  1  0  0  0  0
 16 35  1  0  0  0  0
 16 36  1  0  0  0  0
 18 37  1  0  0  0  0
 18 38  1  0  0  0  0
 19 39  1  0  0  0  0
 19 40  1  0  0  0  0
 19 41  1  0  0  0  0
M  END
