 xtb: 6.7.1 (edcfbbe)
          04092505203D

 41 40  0     0  0            999 V2000
    2.7117    2.2671   -2.0314 C   0  0  0  0  0  0  0  0  0  0  0  0
    3.1251    0.8127   -2.1299 C   0  0  0  0  0  0  0  0  0  0  0  0
    2.2169   -0.0559   -1.4211 O   0  0  0  0  0  0  0  0  0  0  0  0
    2.0726   -0.1292    0.1484 P   0  0  0  0  0  0  0  0  0  0  0  0
    1.2594    1.3377    1.1752 S   0  0  0  0  0  0  0  0  0  0  0  0
    3.5985   -0.3681    0.5574 O   0  0  0  0  0  0  0  0  0  0  0  0
    4.0731   -0.2372    1.9056 C   0  0  0  0  0  0  0  0  0  0  0  0
    3.5502   -1.3416    2.8018 C   0  0  0  0  0  0  0  0  0  0  0  0
    1.1271   -2.0109    0.2688 S   0  0  0  0  0  0  0  0  0  0  0  0
   -0.2275   -1.6456    1.4359 C   0  0  0  0  0  0  0  0  0  0  0  0
   -1.8834   -1.7982    0.7124 S   0  0  0  0  0  0  0  0  0  0  0  0
   -2.0748    0.0939   -0.2098 P   0  0  0  0  0  0  0  0  0  0  0  0
   -0.8618    0.4965   -1.7071 S   0  0  0  0  0  0  0  0  0  0  0  0
   -2.0218    0.9928    1.0912 O   0  0  0  0  0  0  0  0  0  0  0  0
   -2.5786    2.3194    1.2111 C   0  0  0  0  0  0  0  0  0  0  0  0
   -1.9396    3.3041    0.2553 C   0  0  0  0  0  0  0  0  0  0  0  0
   -3.6098    0.1823   -0.6098 O   0  0  0  0  0  0  0  0  0  0  0  0
   -4.0961   -0.2636   -1.8864 C   0  0  0  0  0  0  0  0  0  0  0  0
   -4.0539   -1.7729   -2.0053 C   0  0  0  0  0  0  0  0  0  0  0  0
    3.3455    2.8691   -2.6745 H   0  0  0  0  0  0  0  0  0  0  0  0
    1.6741    2.3755   -2.3413 H   0  0  0  0  0  0  0  0  0  0  0  0
    2.8054    2.6205   -1.0055 H   0  0  0  0  0  0  0  0  0  0  0  0
    4.1335    0.6575   -1.7382 H   0  0  0  0  0  0  0  0  0  0  0  0
    3.0631    0.4525   -3.1582 H   0  0  0  0  0  0  0  0  0  0  0  0
    5.1587   -0.2782    1.8069 H   0  0  0  0  0  0  0  0  0  0  0  0
    3.7694    0.7436    2.2862 H   0  0  0  0  0  0  0  0  0  0  0  0
    3.7458   -2.3134    2.3558 H   0  0  0  0  0  0  0  0  0  0  0  0
    4.0392   -1.2814    3.7687 H   0  0  0  0  0  0  0  0  0  0  0  0
    2.4760   -1.2277    2.9415 H   0  0  0  0  0  0  0  0  0  0  0  0
   -0.0960   -0.6332    1.8278 H   0  0  0  0  0  0  0  0  0  0  0  0
   -0.1882   -2.3910    2.2253 H   0  0  0  0  0  0  0  0  0  0  0  0
   -3.6561    2.2512    1.0461 H   0  0  0  0  0  0  0  0  0  0  0  0
   -2.3715    2.5837    2.2495 H   0  0  0  0  0  0  0  0  0  0  0  0
   -2.1546    3.0240   -0.7752 H   0  0  0  0  0  0  0  0  0  0  0  0
   -2.3304    4.2987    0.4446 H   0  0  0  0  0  0  0  0  0  0  0  0
   -0.8602    3.3090    0.3944 H   0  0  0  0  0  0  0  0  0  0  0  0
   -5.1170    0.1183   -1.9275 H   0  0  0  0  0  0  0  0  0  0  0  0
   -3.4895    0.2022   -2.6703 H   0  0  0  0  0  0  0  0  0  0  0  0
   -4.5264   -2.0758   -2.9341 H   0  0  0  0  0  0  0  0  0  0  0  0
   -3.0194   -2.1150   -2.0066 H   0  0  0  0  0  0  0  0  0  0  0  0
   -4.5706   -2.2326   -1.1668 H   0  0  0  0  0  0  0  0  0  0  0  0
  1  2  1  0  0  0  0
  2  3  1  0  0  0  0
  3  4  2  0  0  0  0
  4  5  2  0  0  0  0
  4  6  2  0  0  0  0
  6  7  1  0  0  0  0
  7  8  1  0  0  0  0
  4  9  1  0  0  0  0
  9 10  1  0  0  0  0
 10 11  1  0  0  0  0
 11 12  1  0  0  0  0
 12 13  2  0  0  0  0
 12 14  2  0  0  0  0
 14 15  1  0  0  0  0
 15 16  1  0  0  0  0
 12 17  2  0  0  0  0
 17 18  1  0  0  0  0
 18 19  1  0  0  0  0
  1 20  1  0  0  0  0
  1 21  1  0  0  0  0
  1 22  1  0  0  0  0
  2 23  1  0  0  0  0
  2 24  1  0  0  0  0
  7 25  1  0  0  0  0
  7 26  1  0  0  0  0
  8 27  1  0  0  0  0
  8 28  1  0  0  0  0
  8 29  1  0  0  0  0
 10 30  1  0  0  0  0
 10 31  1  0  0  0  0
 15 32  1  0  0  0  0
 15 33  1  0  0  0  0
 16 34  1  0  0  0  0
 16 35  1  0  0  0  0
 16 36  1  0  0  0  0
 18 37  1  0  0  0  0
 18 38  1  0  0  0  0
 19 39  1  0  0  0  0
 19 40  1  0  0  0  0
 19 41  1  0  0  0  0
M  END
