 xtb: 6.7.1 (edcfbbe)
          04092507313D

 38 37  0     0  0            999 V2000
    2.1458   -3.5573    0.6430 C   0  0  0  0  0  0  0  0  0  0  0  0
    3.1915   -2.5583    0.1759 C   0  0  0  0  0  0  0  0  0  0  0  0
    2.6934   -1.7897   -0.9363 O   0  0  0  0  0  0  0  0  0  0  0  0
    2.1599   -0.6108   -0.7185 C   0  0  0  0  0  0  0  0  0  0  0  0
    2.0552   -0.0749    0.3673 O   0  0  0  0  0  0  0  0  0  0  0  0
    1.7104    0.0580   -2.0017 C   0  0  0  0  0  0  0  0  0  0  0  0
    0.4414    0.8708   -1.7521 C   0  0  0  0  0  0  0  0  0  0  0  0
    0.2797    1.5729   -2.5736 H   0  0  0  0  0  0  0  0  0  0  0  0
    0.5182    1.6554   -0.4568 C   0  0  0  0  0  0  0  0  0  0  0  0
   -0.3222    1.5482    0.4216 O   0  0  0  0  0  0  0  0  0  0  0  0
    1.5023    2.5066   -0.4547 O   0  0  0  0  0  0  0  0  0  0  0  0
    1.7132    3.3096    0.7275 C   0  0  0  0  0  0  0  0  0  0  0  0
    0.8270    4.5436    0.7173 C   0  0  0  0  0  0  0  0  0  0  0  0
   -1.0541   -0.1795   -1.7138 S   0  0  0  0  0  0  0  0  0  0  0  0
   -1.6846   -0.4050    0.3019 P   0  0  0  0  0  0  0  0  0  0  0  0
   -0.5755   -1.0576    1.7928 S   0  0  0  0  0  0  0  0  0  0  0  0
   -2.8025    0.6857    0.6091 O   0  0  0  0  0  0  0  0  0  0  0  0
   -2.7784    1.5897    1.7133 C   0  0  0  0  0  0  0  0  0  0  0  0
   -2.7756   -1.5393   -0.0669 O   0  0  0  0  0  0  0  0  0  0  0  0
   -2.4029   -2.8890   -0.3413 C   0  0  0  0  0  0  0  0  0  0  0  0
    1.2841   -3.0332    1.0535 H   0  0  0  0  0  0  0  0  0  0  0  0
    1.8230   -4.1783   -0.1879 H   0  0  0  0  0  0  0  0  0  0  0  0
    2.5699   -4.1853    1.4192 H   0  0  0  0  0  0  0  0  0  0  0  0
    4.0770   -3.0629   -0.2124 H   0  0  0  0  0  0  0  0  0  0  0  0
    3.4608   -1.8734    0.9846 H   0  0  0  0  0  0  0  0  0  0  0  0
    1.5440   -0.6888   -2.7759 H   0  0  0  0  0  0  0  0  0  0  0  0
    2.5111    0.7325   -2.3141 H   0  0  0  0  0  0  0  0  0  0  0  0
    1.5199    2.6849    1.6039 H   0  0  0  0  0  0  0  0  0  0  0  0
    2.7690    3.5752    0.6799 H   0  0  0  0  0  0  0  0  0  0  0  0
    1.0054    5.1254   -0.1826 H   0  0  0  0  0  0  0  0  0  0  0  0
   -0.2213    4.2563    0.7540 H   0  0  0  0  0  0  0  0  0  0  0  0
    1.0533    5.1506    1.5875 H   0  0  0  0  0  0  0  0  0  0  0  0
   -2.5467    2.5887    1.3473 H   0  0  0  0  0  0  0  0  0  0  0  0
   -2.0289    1.2819    2.4447 H   0  0  0  0  0  0  0  0  0  0  0  0
   -3.7720    1.5620    2.1562 H   0  0  0  0  0  0  0  0  0  0  0  0
   -1.6878   -3.2386    0.4073 H   0  0  0  0  0  0  0  0  0  0  0  0
   -1.9678   -2.9662   -1.3383 H   0  0  0  0  0  0  0  0  0  0  0  0
   -3.3226   -3.4655   -0.2814 H   0  0  0  0  0  0  0  0  0  0  0  0
  1  2  1  0  0  0  0
  2  3  1  0  0  0  0
  3  4  4  0  0  0  0
  4  5  2  0  0  0  0
  4  6  1  0  0  0  0
  6  7  1  0  0  0  0
  7  8  1  0  0  0  0
  7  9  1  0  0  0  0
  9 10  2  0  0  0  0
  9 11  4  0  0  0  0
 11 12  1  0  0  0  0
 12 13  1  0  0  0  0
  7 14  1  0  0  0  0
 14 15  1  0  0  0  0
 15 16  2  0  0  0  0
 15 17  1  0  0  0  0
 17 18  1  0  0  0  0
 15 19  1  0  0  0  0
 19 20  1  0  0  0  0
  1 21  1  0  0  0  0
  1 22  1  0  0  0  0
  1 23  1  0  0  0  0
  2 24  1  0  0  0  0
  2 25  1  0  0  0  0
  6 26  1  0  0  0  0
  6 27  1  0  0  0  0
 12 28  1  0  0  0  0
 12 29  1  0  0  0  0
 13 30  1  0  0  0  0
 13 31  1  0  0  0  0
 13 32  1  0  0  0  0
 18 33  1  0  0  0  0
 18 34  1  0  0  0  0
 18 35  1  0  0  0  0
 20 36  1  0  0  0  0
 20 37  1  0  0  0  0
 20 38  1  0  0  0  0
M  END
