 xtb: 6.7.1 (edcfbbe)
          04092505203D

 41 40  0     0  0            999 V2000
    1.4677   -1.3071   -2.7168 C   0  0  0  0  0  0  0  0  0  0  0  0
    2.3945   -0.1318   -2.4888 C   0  0  0  0  0  0  0  0  0  0  0  0
    2.1266    0.5513   -1.2404 O   0  0  0  0  0  0  0  0  0  0  0  0
    2.2977   -0.0473    0.2059 P   0  0  0  0  0  0  0  0  0  0  0  0
    2.4786    1.3857    1.5292 S   0  0  0  0  0  0  0  0  0  0  0  0
    3.5558   -0.9960   -0.0224 O   0  0  0  0  0  0  0  0  0  0  0  0
    4.0135   -2.0190    0.8806 C   0  0  0  0  0  0  0  0  0  0  0  0
    4.4649   -1.4658    2.2164 C   0  0  0  0  0  0  0  0  0  0  0  0
    0.7467   -1.4531    0.6241 S   0  0  0  0  0  0  0  0  0  0  0  0
   -0.1594   -0.5852    1.9382 C   0  0  0  0  0  0  0  0  0  0  0  0
   -1.9346   -0.5048    1.6167 S   0  0  0  0  0  0  0  0  0  0  0  0
   -1.8684    0.5580   -0.2271 P   0  0  0  0  0  0  0  0  0  0  0  0
   -0.5852    2.0354   -0.3198 S   0  0  0  0  0  0  0  0  0  0  0  0
   -3.3913    0.9592   -0.4271 O   0  0  0  0  0  0  0  0  0  0  0  0
   -4.0086    1.9766    0.3878 C   0  0  0  0  0  0  0  0  0  0  0  0
   -5.3003    2.3915   -0.2868 C   0  0  0  0  0  0  0  0  0  0  0  0
   -1.6381   -0.5082   -1.3608 O   0  0  0  0  0  0  0  0  0  0  0  0
   -2.4712   -1.6881   -1.5269 C   0  0  0  0  0  0  0  0  0  0  0  0
   -3.5097   -1.4567   -2.6041 C   0  0  0  0  0  0  0  0  0  0  0  0
    0.4326   -0.9832   -2.6355 H   0  0  0  0  0  0  0  0  0  0  0  0
    1.6420   -1.7084   -3.7103 H   0  0  0  0  0  0  0  0  0  0  0  0
    1.6530   -2.0865   -1.9791 H   0  0  0  0  0  0  0  0  0  0  0  0
    2.2396    0.6510   -3.2334 H   0  0  0  0  0  0  0  0  0  0  0  0
    3.4403   -0.4448   -2.4877 H   0  0  0  0  0  0  0  0  0  0  0  0
    3.2085   -2.7472    1.0136 H   0  0  0  0  0  0  0  0  0  0  0  0
    4.8438   -2.4789    0.3413 H   0  0  0  0  0  0  0  0  0  0  0  0
    4.8810   -2.2697    2.8148 H   0  0  0  0  0  0  0  0  0  0  0  0
    5.2187   -0.6958    2.0719 H   0  0  0  0  0  0  0  0  0  0  0  0
    3.6248   -1.0223    2.7474 H   0  0  0  0  0  0  0  0  0  0  0  0
    0.2556    0.4234    2.0308 H   0  0  0  0  0  0  0  0  0  0  0  0
   -0.0495   -1.1416    2.8657 H   0  0  0  0  0  0  0  0  0  0  0  0
   -4.1922    1.5537    1.3791 H   0  0  0  0  0  0  0  0  0  0  0  0
   -3.3133    2.8175    0.4802 H   0  0  0  0  0  0  0  0  0  0  0  0
   -5.9616    1.5353   -0.3822 H   0  0  0  0  0  0  0  0  0  0  0  0
   -5.7850    3.1545    0.3133 H   0  0  0  0  0  0  0  0  0  0  0  0
   -5.0933    2.7917   -1.2754 H   0  0  0  0  0  0  0  0  0  0  0  0
   -1.7718   -2.4795   -1.8027 H   0  0  0  0  0  0  0  0  0  0  0  0
   -2.9388   -1.9278   -0.5683 H   0  0  0  0  0  0  0  0  0  0  0  0
   -4.0802   -2.3691   -2.7462 H   0  0  0  0  0  0  0  0  0  0  0  0
   -4.1813   -0.6540   -2.3118 H   0  0  0  0  0  0  0  0  0  0  0  0
   -3.0269   -1.1860   -3.5390 H   0  0  0  0  0  0  0  0  0  0  0  0
  1  2  1  0  0  0  0
  2  3  1  0  0  0  0
  3  4  2  0  0  0  0
  4  5  2  0  0  0  0
  4  6  2  0  0  0  0
  6  7  1  0  0  0  0
  7  8  1  0  0  0  0
  4  9  1  0  0  0  0
  9 10  1  0  0  0  0
 10 11  1  0  0  0  0
 11 12  1  0  0  0  0
 12 13  2  0  0  0  0
 12 14  2  0  0  0  0
 14 15  1  0  0  0  0
 15 16  1  0  0  0  0
 12 17  2  0  0  0  0
 17 18  1  0  0  0  0
 18 19  1  0  0  0  0
  1 20  1  0  0  0  0
  1 21  1  0  0  0  0
  1 22  1  0  0  0  0
  2 23  1  0  0  0  0
  2 24  1  0  0  0  0
  7 25  1  0  0  0  0
  7 26  1  0  0  0  0
  8 27  1  0  0  0  0
  8 28  1  0  0  0  0
  8 29  1  0  0  0  0
 10 30  1  0  0  0  0
 10 31  1  0  0  0  0
 15 32  1  0  0  0  0
 15 33  1  0  0  0  0
 16 34  1  0  0  0  0
 16 35  1  0  0  0  0
 16 36  1  0  0  0  0
 18 37  1  0  0  0  0
 18 38  1  0  0  0  0
 19 39  1  0  0  0  0
 19 40  1  0  0  0  0
 19 41  1  0  0  0  0
M  END
