 xtb: 6.7.1 (edcfbbe)
          04092505213D

 41 40  0     0  0            999 V2000
    3.9979   -1.9980   -2.0473 C   0  0  0  0  0  0  0  0  0  0  0  0
    4.5130   -1.5916   -0.6823 C   0  0  0  0  0  0  0  0  0  0  0  0
    3.4498   -1.2577    0.2300 O   0  0  0  0  0  0  0  0  0  0  0  0
    2.4965   -0.0052    0.0144 P   0  0  0  0  0  0  0  0  0  0  0  0
    3.3446    1.6234   -0.6505 S   0  0  0  0  0  0  0  0  0  0  0  0
    1.8656    0.1892    1.4463 O   0  0  0  0  0  0  0  0  0  0  0  0
    1.3042   -0.9035    2.2146 C   0  0  0  0  0  0  0  0  0  0  0  0
    2.2526   -1.3032    3.3256 C   0  0  0  0  0  0  0  0  0  0  0  0
    0.9063   -0.7885   -1.1843 S   0  0  0  0  0  0  0  0  0  0  0  0
    0.2329    0.8161   -1.6711 C   0  0  0  0  0  0  0  0  0  0  0  0
   -0.4601    1.7464   -0.2733 S   0  0  0  0  0  0  0  0  0  0  0  0
   -2.2478    0.6241   -0.1054 P   0  0  0  0  0  0  0  0  0  0  0  0
   -3.1707    0.1883   -1.7781 S   0  0  0  0  0  0  0  0  0  0  0  0
   -2.9645    1.6233    0.8884 O   0  0  0  0  0  0  0  0  0  0  0  0
   -4.3988    1.7576    0.9777 C   0  0  0  0  0  0  0  0  0  0  0  0
   -4.9978    0.7123    1.8960 C   0  0  0  0  0  0  0  0  0  0  0  0
   -1.8846   -0.6295    0.8098 O   0  0  0  0  0  0  0  0  0  0  0  0
   -1.9350   -2.0013    0.3662 C   0  0  0  0  0  0  0  0  0  0  0  0
   -3.2789   -2.6252    0.6845 C   0  0  0  0  0  0  0  0  0  0  0  0
    3.2456   -2.7772   -1.9539 H   0  0  0  0  0  0  0  0  0  0  0  0
    3.5546   -1.1396   -2.5497 H   0  0  0  0  0  0  0  0  0  0  0  0
    4.8254   -2.3647   -2.6462 H   0  0  0  0  0  0  0  0  0  0  0  0
    5.1785   -0.7271   -0.7641 H   0  0  0  0  0  0  0  0  0  0  0  0
    5.0300   -2.4142   -0.1862 H   0  0  0  0  0  0  0  0  0  0  0  0
    0.3612   -0.5164    2.6078 H   0  0  0  0  0  0  0  0  0  0  0  0
    1.1091   -1.7435    1.5422 H   0  0  0  0  0  0  0  0  0  0  0  0
    2.4754   -0.4430    3.9509 H   0  0  0  0  0  0  0  0  0  0  0  0
    1.7885   -2.0764    3.9297 H   0  0  0  0  0  0  0  0  0  0  0  0
    3.1811   -1.6817    2.9061 H   0  0  0  0  0  0  0  0  0  0  0  0
   -0.5460    0.6289   -2.4108 H   0  0  0  0  0  0  0  0  0  0  0  0
    1.0336    1.4296   -2.0839 H   0  0  0  0  0  0  0  0  0  0  0  0
   -4.5479    2.7666    1.3654 H   0  0  0  0  0  0  0  0  0  0  0  0
   -4.8205    1.6836   -0.0303 H   0  0  0  0  0  0  0  0  0  0  0  0
   -6.0563    0.9156    2.0253 H   0  0  0  0  0  0  0  0  0  0  0  0
   -4.8765   -0.2785    1.4649 H   0  0  0  0  0  0  0  0  0  0  0  0
   -4.5045    0.7401    2.8638 H   0  0  0  0  0  0  0  0  0  0  0  0
   -1.7360   -2.0435   -0.7081 H   0  0  0  0  0  0  0  0  0  0  0  0
   -1.1282   -2.4981    0.9063 H   0  0  0  0  0  0  0  0  0  0  0  0
   -3.5057   -2.5153    1.7414 H   0  0  0  0  0  0  0  0  0  0  0  0
   -4.0596   -2.1500    0.0939 H   0  0  0  0  0  0  0  0  0  0  0  0
   -3.2457   -3.6803    0.4327 H   0  0  0  0  0  0  0  0  0  0  0  0
  1  2  1  0  0  0  0
  2  3  1  0  0  0  0
  3  4  2  0  0  0  0
  4  5  2  0  0  0  0
  4  6  2  0  0  0  0
  6  7  1  0  0  0  0
  7  8  1  0  0  0  0
  4  9  1  0  0  0  0
  9 10  1  0  0  0  0
 10 11  1  0  0  0  0
 11 12  1  0  0  0  0
 12 13  2  0  0  0  0
 12 14  2  0  0  0  0
 14 15  1  0  0  0  0
 15 16  1  0  0  0  0
 12 17  2  0  0  0  0
 17 18  1  0  0  0  0
 18 19  1  0  0  0  0
  1 20  1  0  0  0  0
  1 21  1  0  0  0  0
  1 22  1  0  0  0  0
  2 23  1  0  0  0  0
  2 24  1  0  0  0  0
  7 25  1  0  0  0  0
  7 26  1  0  0  0  0
  8 27  1  0  0  0  0
  8 28  1  0  0  0  0
  8 29  1  0  0  0  0
 10 30  1  0  0  0  0
 10 31  1  0  0  0  0
 15 32  1  0  0  0  0
 15 33  1  0  0  0  0
 16 34  1  0  0  0  0
 16 35  1  0  0  0  0
 16 36  1  0  0  0  0
 18 37  1  0  0  0  0
 18 38  1  0  0  0  0
 19 39  1  0  0  0  0
 19 40  1  0  0  0  0
 19 41  1  0  0  0  0
M  END
