 xtb: 6.7.1 (edcfbbe)
          04092505203D

 41 40  0     0  0            999 V2000
    2.0587    2.4950   -0.9854 C   0  0  0  0  0  0  0  0  0  0  0  0
    1.9954    1.0854   -1.5325 C   0  0  0  0  0  0  0  0  0  0  0  0
    1.3203    0.1688   -0.6446 O   0  0  0  0  0  0  0  0  0  0  0  0
    1.8073   -0.0963    0.8645 P   0  0  0  0  0  0  0  0  0  0  0  0
    1.1394    1.1382    2.2228 S   0  0  0  0  0  0  0  0  0  0  0  0
    3.3892   -0.0626    0.8707 O   0  0  0  0  0  0  0  0  0  0  0  0
    4.2507   -1.0167    0.1969 C   0  0  0  0  0  0  0  0  0  0  0  0
    4.7978   -2.0207    1.1911 C   0  0  0  0  0  0  0  0  0  0  0  0
    1.3168   -2.1471    1.0370 S   0  0  0  0  0  0  0  0  0  0  0  0
   -0.3077   -2.1931    0.2276 C   0  0  0  0  0  0  0  0  0  0  0  0
   -1.4951   -0.9962    0.8895 S   0  0  0  0  0  0  0  0  0  0  0  0
   -1.7412    0.2615   -0.8219 P   0  0  0  0  0  0  0  0  0  0  0  0
   -1.0666   -0.4079   -2.5284 S   0  0  0  0  0  0  0  0  0  0  0  0
   -1.1714    1.6758   -0.4164 O   0  0  0  0  0  0  0  0  0  0  0  0
   -1.7323    2.4542    0.6707 C   0  0  0  0  0  0  0  0  0  0  0  0
   -2.6120    3.5603    0.1275 C   0  0  0  0  0  0  0  0  0  0  0  0
   -3.3095    0.5487   -0.8102 O   0  0  0  0  0  0  0  0  0  0  0  0
   -4.2614   -0.2922   -1.4845 C   0  0  0  0  0  0  0  0  0  0  0  0
   -4.3323   -1.6878   -0.8993 C   0  0  0  0  0  0  0  0  0  0  0  0
    2.5454    3.1385   -1.7117 H   0  0  0  0  0  0  0  0  0  0  0  0
    1.0551    2.8647   -0.7904 H   0  0  0  0  0  0  0  0  0  0  0  0
    2.6233    2.5111   -0.0532 H   0  0  0  0  0  0  0  0  0  0  0  0
    2.9986    0.7000   -1.7298 H   0  0  0  0  0  0  0  0  0  0  0  0
    1.3978    1.0352   -2.4457 H   0  0  0  0  0  0  0  0  0  0  0  0
    3.6930   -1.5170   -0.5989 H   0  0  0  0  0  0  0  0  0  0  0  0
    5.0506   -0.4091   -0.2306 H   0  0  0  0  0  0  0  0  0  0  0  0
    5.4992   -2.6759    0.6843 H   0  0  0  0  0  0  0  0  0  0  0  0
    5.3066   -1.5029    1.9992 H   0  0  0  0  0  0  0  0  0  0  0  0
    3.9901   -2.6174    1.6101 H   0  0  0  0  0  0  0  0  0  0  0  0
   -0.6902   -3.1918    0.4248 H   0  0  0  0  0  0  0  0  0  0  0  0
   -0.1923   -2.0154   -0.8451 H   0  0  0  0  0  0  0  0  0  0  0  0
   -2.2891    1.7895    1.3363 H   0  0  0  0  0  0  0  0  0  0  0  0
   -0.8689    2.8498    1.2108 H   0  0  0  0  0  0  0  0  0  0  0  0
   -2.9631    4.1679    0.9554 H   0  0  0  0  0  0  0  0  0  0  0  0
   -2.0464    4.1832   -0.5601 H   0  0  0  0  0  0  0  0  0  0  0  0
   -3.4652    3.1394   -0.3981 H   0  0  0  0  0  0  0  0  0  0  0  0
   -5.2061    0.2402   -1.3646 H   0  0  0  0  0  0  0  0  0  0  0  0
   -3.9903   -0.3344   -2.5439 H   0  0  0  0  0  0  0  0  0  0  0  0
   -5.1583   -2.2228   -1.3570 H   0  0  0  0  0  0  0  0  0  0  0  0
   -3.4082   -2.2259   -1.1047 H   0  0  0  0  0  0  0  0  0  0  0  0
   -4.4830   -1.6424    0.1764 H   0  0  0  0  0  0  0  0  0  0  0  0
  1  2  1  0  0  0  0
  2  3  1  0  0  0  0
  3  4  1  0  0  0  0
  4  5  2  0  0  0  0
  4  6  2  0  0  0  0
  6  7  1  0  0  0  0
  7  8  1  0  0  0  0
  4  9  1  0  0  0  0
  9 10  1  0  0  0  0
 10 11  1  0  0  0  0
 11 12  1  0  0  0  0
 12 13  2  0  0  0  0
 12 14  2  0  0  0  0
 14 15  1  0  0  0  0
 15 16  1  0  0  0  0
 12 17  2  0  0  0  0
 17 18  1  0  0  0  0
 18 19  1  0  0  0  0
  1 20  1  0  0  0  0
  1 21  1  0  0  0  0
  1 22  1  0  0  0  0
  2 23  1  0  0  0  0
  2 24  1  0  0  0  0
  7 25  1  0  0  0  0
  7 26  1  0  0  0  0
  8 27  1  0  0  0  0
  8 28  1  0  0  0  0
  8 29  1  0  0  0  0
 10 30  1  0  0  0  0
 10 31  1  0  0  0  0
 15 32  1  0  0  0  0
 15 33  1  0  0  0  0
 16 34  1  0  0  0  0
 16 35  1  0  0  0  0
 16 36  1  0  0  0  0
 18 37  1  0  0  0  0
 18 38  1  0  0  0  0
 19 39  1  0  0  0  0
 19 40  1  0  0  0  0
 19 41  1  0  0  0  0
M  END
