 xtb: 6.7.1 (edcfbbe)
          04092505213D

 41 40  0     0  0            999 V2000
    5.1564   -1.5099   -1.5576 C   0  0  0  0  0  0  0  0  0  0  0  0
    3.7087   -1.7014   -1.9664 C   0  0  0  0  0  0  0  0  0  0  0  0
    2.8483   -1.7275   -0.8088 O   0  0  0  0  0  0  0  0  0  0  0  0
    2.0953   -0.4329   -0.2709 P   0  0  0  0  0  0  0  0  0  0  0  0
    3.2065    1.1542    0.0494 S   0  0  0  0  0  0  0  0  0  0  0  0
    1.3566   -1.0349    0.9870 O   0  0  0  0  0  0  0  0  0  0  0  0
    1.8575   -0.9447    2.3399 C   0  0  0  0  0  0  0  0  0  0  0  0
    0.8232   -0.2716    3.2204 C   0  0  0  0  0  0  0  0  0  0  0  0
    0.5232   -0.2136   -1.6650 S   0  0  0  0  0  0  0  0  0  0  0  0
    0.0741    1.4865   -1.2239 C   0  0  0  0  0  0  0  0  0  0  0  0
   -0.5416    1.6224    0.4700 S   0  0  0  0  0  0  0  0  0  0  0  0
   -2.2626    0.4081    0.2069 P   0  0  0  0  0  0  0  0  0  0  0  0
   -3.1523    0.5601   -1.5391 S   0  0  0  0  0  0  0  0  0  0  0  0
   -3.1112    0.7256    1.5075 O   0  0  0  0  0  0  0  0  0  0  0  0
   -3.4285    2.0412    1.9990 C   0  0  0  0  0  0  0  0  0  0  0  0
   -4.1230    2.9030    0.9647 C   0  0  0  0  0  0  0  0  0  0  0  0
   -1.8260   -1.0660    0.5901 O   0  0  0  0  0  0  0  0  0  0  0  0
   -2.0747   -2.2259   -0.2322 C   0  0  0  0  0  0  0  0  0  0  0  0
   -0.9771   -3.2417    0.0079 C   0  0  0  0  0  0  0  0  0  0  0  0
    5.4521   -2.2868   -0.8582 H   0  0  0  0  0  0  0  0  0  0  0  0
    5.7865   -1.5607   -2.4396 H   0  0  0  0  0  0  0  0  0  0  0  0
    5.2893   -0.5405   -1.0825 H   0  0  0  0  0  0  0  0  0  0  0  0
    3.5549   -2.6701   -2.4453 H   0  0  0  0  0  0  0  0  0  0  0  0
    3.3821   -0.9057   -2.6418 H   0  0  0  0  0  0  0  0  0  0  0  0
    2.0446   -1.9723    2.6567 H   0  0  0  0  0  0  0  0  0  0  0  0
    2.7976   -0.3840    2.3378 H   0  0  0  0  0  0  0  0  0  0  0  0
    1.1273   -0.3588    4.2584 H   0  0  0  0  0  0  0  0  0  0  0  0
    0.7330    0.7807    2.9612 H   0  0  0  0  0  0  0  0  0  0  0  0
   -0.1449   -0.7481    3.0851 H   0  0  0  0  0  0  0  0  0  0  0  0
   -0.7027    1.7912   -1.9251 H   0  0  0  0  0  0  0  0  0  0  0  0
    0.9520    2.1286   -1.2897 H   0  0  0  0  0  0  0  0  0  0  0  0
   -4.0770    1.8436    2.8544 H   0  0  0  0  0  0  0  0  0  0  0  0
   -2.5023    2.5137    2.3381 H   0  0  0  0  0  0  0  0  0  0  0  0
   -5.0021    2.3943    0.5760 H   0  0  0  0  0  0  0  0  0  0  0  0
   -4.4226    3.8413    1.4203 H   0  0  0  0  0  0  0  0  0  0  0  0
   -3.4502    3.1111    0.1340 H   0  0  0  0  0  0  0  0  0  0  0  0
   -3.0498   -2.6252    0.0577 H   0  0  0  0  0  0  0  0  0  0  0  0
   -2.1153   -1.9193   -1.2829 H   0  0  0  0  0  0  0  0  0  0  0  0
   -0.9337   -3.4991    1.0622 H   0  0  0  0  0  0  0  0  0  0  0  0
   -1.1901   -4.1327   -0.5739 H   0  0  0  0  0  0  0  0  0  0  0  0
   -0.0125   -2.8409   -0.2941 H   0  0  0  0  0  0  0  0  0  0  0  0
  1  2  1  0  0  0  0
  2  3  1  0  0  0  0
  3  4  2  0  0  0  0
  4  5  2  0  0  0  0
  4  6  2  0  0  0  0
  6  7  1  0  0  0  0
  7  8  1  0  0  0  0
  4  9  1  0  0  0  0
  9 10  1  0  0  0  0
 10 11  1  0  0  0  0
 11 12  1  0  0  0  0
 12 13  2  0  0  0  0
 12 14  2  0  0  0  0
 14 15  1  0  0  0  0
 15 16  1  0  0  0  0
 12 17  2  0  0  0  0
 17 18  1  0  0  0  0
 18 19  1  0  0  0  0
  1 20  1  0  0  0  0
  1 21  1  0  0  0  0
  1 22  1  0  0  0  0
  2 23  1  0  0  0  0
  2 24  1  0  0  0  0
  7 25  1  0  0  0  0
  7 26  1  0  0  0  0
  8 27  1  0  0  0  0
  8 28  1  0  0  0  0
  8 29  1  0  0  0  0
 10 30  1  0  0  0  0
 10 31  1  0  0  0  0
 15 32  1  0  0  0  0
 15 33  1  0  0  0  0
 16 34  1  0  0  0  0
 16 35  1  0  0  0  0
 16 36  1  0  0  0  0
 18 37  1  0  0  0  0
 18 38  1  0  0  0  0
 19 39  1  0  0  0  0
 19 40  1  0  0  0  0
 19 41  1  0  0  0  0
M  END
