 xtb: 6.7.1 (edcfbbe)
          04092507313D

 38 37  0     0  0            999 V2000
    4.2407   -2.4055    0.8047 C   0  0  0  0  0  0  0  0  0  0  0  0
    2.7574   -2.2952    0.5135 C   0  0  0  0  0  0  0  0  0  0  0  0
    2.5689   -1.2481   -0.4579 O   0  0  0  0  0  0  0  0  0  0  0  0
    1.4186   -1.1738   -1.0851 C   0  0  0  0  0  0  0  0  0  0  0  0
    0.4832   -1.9294   -0.9038 O   0  0  0  0  0  0  0  0  0  0  0  0
    1.3815   -0.0294   -2.0761 C   0  0  0  0  0  0  0  0  0  0  0  0
    0.2932    0.9753   -1.6957 C   0  0  0  0  0  0  0  0  0  0  0  0
    0.2164    1.7397   -2.4756 H   0  0  0  0  0  0  0  0  0  0  0  0
    0.5454    1.6808   -0.3755 C   0  0  0  0  0  0  0  0  0  0  0  0
   -0.3609    1.9870    0.3749 O   0  0  0  0  0  0  0  0  0  0  0  0
    1.8118    1.9105   -0.1664 O   0  0  0  0  0  0  0  0  0  0  0  0
    2.1948    2.5687    1.0600 C   0  0  0  0  0  0  0  0  0  0  0  0
    2.0377    4.0754    0.9441 C   0  0  0  0  0  0  0  0  0  0  0  0
   -1.3759    0.2372   -1.6290 S   0  0  0  0  0  0  0  0  0  0  0  0
   -1.6639   -0.2749    0.4213 P   0  0  0  0  0  0  0  0  0  0  0  0
   -0.2800   -0.6265    1.7644 S   0  0  0  0  0  0  0  0  0  0  0  0
   -2.7146    0.7580    1.0027 O   0  0  0  0  0  0  0  0  0  0  0  0
   -3.9121    1.1493    0.3096 C   0  0  0  0  0  0  0  0  0  0  0  0
   -2.6580   -1.5240    0.2283 O   0  0  0  0  0  0  0  0  0  0  0  0
   -2.2455   -2.8412   -0.1331 C   0  0  0  0  0  0  0  0  0  0  0  0
    4.7834   -2.6470   -0.1045 H   0  0  0  0  0  0  0  0  0  0  0  0
    4.6121   -1.4650    1.1991 H   0  0  0  0  0  0  0  0  0  0  0  0
    4.4014   -3.1884    1.5381 H   0  0  0  0  0  0  0  0  0  0  0  0
    2.1815   -2.0332    1.4072 H   0  0  0  0  0  0  0  0  0  0  0  0
    2.3493   -3.2233    0.1008 H   0  0  0  0  0  0  0  0  0  0  0  0
    1.1447   -0.4379   -3.0593 H   0  0  0  0  0  0  0  0  0  0  0  0
    2.3511    0.4664   -2.0874 H   0  0  0  0  0  0  0  0  0  0  0  0
    1.5818    2.1678    1.8728 H   0  0  0  0  0  0  0  0  0  0  0  0
    3.2375    2.2828    1.1960 H   0  0  0  0  0  0  0  0  0  0  0  0
    0.9894    4.3347    0.8139 H   0  0  0  0  0  0  0  0  0  0  0  0
    2.4027    4.5407    1.8535 H   0  0  0  0  0  0  0  0  0  0  0  0
    2.6067    4.4474    0.0966 H   0  0  0  0  0  0  0  0  0  0  0  0
   -3.6575    1.6036   -0.6480 H   0  0  0  0  0  0  0  0  0  0  0  0
   -4.3891    1.8745    0.9637 H   0  0  0  0  0  0  0  0  0  0  0  0
   -4.5529    0.2825    0.1557 H   0  0  0  0  0  0  0  0  0  0  0  0
   -3.1123   -3.4740    0.0403 H   0  0  0  0  0  0  0  0  0  0  0  0
   -1.4062   -3.1557    0.4875 H   0  0  0  0  0  0  0  0  0  0  0  0
   -1.9450   -2.8657   -1.1796 H   0  0  0  0  0  0  0  0  0  0  0  0
  1  2  1  0  0  0  0
  2  3  1  0  0  0  0
  3  4  4  0  0  0  0
  4  5  2  0  0  0  0
  4  6  1  0  0  0  0
  6  7  1  0  0  0  0
  7  8  1  0  0  0  0
  7  9  1  0  0  0  0
  9 10  2  0  0  0  0
  9 11  4  0  0  0  0
 11 12  1  0  0  0  0
 12 13  1  0  0  0  0
  7 14  1  0  0  0  0
 14 15  1  0  0  0  0
 15 16  2  0  0  0  0
 15 17  2  0  0  0  0
 17 18  1  0  0  0  0
 15 19  1  0  0  0  0
 19 20  1  0  0  0  0
  1 21  1  0  0  0  0
  1 22  1  0  0  0  0
  1 23  1  0  0  0  0
  2 24  1  0  0  0  0
  2 25  1  0  0  0  0
  6 26  1  0  0  0  0
  6 27  1  0  0  0  0
 12 28  1  0  0  0  0
 12 29  1  0  0  0  0
 13 30  1  0  0  0  0
 13 31  1  0  0  0  0
 13 32  1  0  0  0  0
 18 33  1  0  0  0  0
 18 34  1  0  0  0  0
 18 35  1  0  0  0  0
 20 36  1  0  0  0  0
 20 37  1  0  0  0  0
 20 38  1  0  0  0  0
M  END
