 xtb: 6.7.1 (edcfbbe)
          04092505213D

 41 40  0     0  0            999 V2000
    2.1524   -2.0134   -2.6283 C   0  0  0  0  0  0  0  0  0  0  0  0
    2.5615   -0.5566   -2.5234 C   0  0  0  0  0  0  0  0  0  0  0  0
    3.2152   -0.2752   -1.2739 O   0  0  0  0  0  0  0  0  0  0  0  0
    2.4505    0.1904    0.0312 P   0  0  0  0  0  0  0  0  0  0  0  0
    1.1350    1.6296   -0.2186 S   0  0  0  0  0  0  0  0  0  0  0  0
    3.7576    0.5767    0.8331 O   0  0  0  0  0  0  0  0  0  0  0  0
    3.7321    1.4378    1.9845 C   0  0  0  0  0  0  0  0  0  0  0  0
    2.9656    0.8345    3.1452 C   0  0  0  0  0  0  0  0  0  0  0  0
    1.7550   -1.5947    0.9647 S   0  0  0  0  0  0  0  0  0  0  0  0
   -0.0135   -1.2548    1.0831 C   0  0  0  0  0  0  0  0  0  0  0  0
   -0.8658   -1.3482   -0.5361 S   0  0  0  0  0  0  0  0  0  0  0  0
   -2.4223    0.0618   -0.2073 P   0  0  0  0  0  0  0  0  0  0  0  0
   -2.2233    1.2348    1.3578 S   0  0  0  0  0  0  0  0  0  0  0  0
   -3.7724   -0.7677   -0.2231 O   0  0  0  0  0  0  0  0  0  0  0  0
   -4.4402   -1.1942    0.9737 C   0  0  0  0  0  0  0  0  0  0  0  0
   -3.6793   -2.2962    1.6847 C   0  0  0  0  0  0  0  0  0  0  0  0
   -2.6560    0.6924   -1.6388 O   0  0  0  0  0  0  0  0  0  0  0  0
   -1.7050    1.4576   -2.3937 C   0  0  0  0  0  0  0  0  0  0  0  0
   -1.7237    2.9190   -1.9913 C   0  0  0  0  0  0  0  0  0  0  0  0
    1.8091   -2.2129   -3.6383 H   0  0  0  0  0  0  0  0  0  0  0  0
    3.0026   -2.6516   -2.4044 H   0  0  0  0  0  0  0  0  0  0  0  0
    1.3466   -2.2423   -1.9335 H   0  0  0  0  0  0  0  0  0  0  0  0
    1.6981    0.1093   -2.6325 H   0  0  0  0  0  0  0  0  0  0  0  0
    3.3086   -0.3026   -3.2779 H   0  0  0  0  0  0  0  0  0  0  0  0
    4.7867    1.5741    2.2282 H   0  0  0  0  0  0  0  0  0  0  0  0
    3.2936    2.3975    1.6922 H   0  0  0  0  0  0  0  0  0  0  0  0
    3.1026    1.4546    4.0255 H   0  0  0  0  0  0  0  0  0  0  0  0
    1.9018    0.7933    2.9114 H   0  0  0  0  0  0  0  0  0  0  0  0
    3.3223   -0.1714    3.3522 H   0  0  0  0  0  0  0  0  0  0  0  0
   -0.1900   -0.2568    1.4932 H   0  0  0  0  0  0  0  0  0  0  0  0
   -0.4065   -2.0295    1.7366 H   0  0  0  0  0  0  0  0  0  0  0  0
   -4.5693   -0.3292    1.6324 H   0  0  0  0  0  0  0  0  0  0  0  0
   -5.4128   -1.5392    0.6202 H   0  0  0  0  0  0  0  0  0  0  0  0
   -4.2910   -2.6977    2.4862 H   0  0  0  0  0  0  0  0  0  0  0  0
   -3.4306   -3.0921    0.9870 H   0  0  0  0  0  0  0  0  0  0  0  0
   -2.7626   -1.8913    2.1115 H   0  0  0  0  0  0  0  0  0  0  0  0
   -0.7053    1.0350   -2.2587 H   0  0  0  0  0  0  0  0  0  0  0  0
   -2.0215    1.3259   -3.4302 H   0  0  0  0  0  0  0  0  0  0  0  0
   -2.7353    3.3111   -2.0498 H   0  0  0  0  0  0  0  0  0  0  0  0
   -1.3586    3.0321   -0.9717 H   0  0  0  0  0  0  0  0  0  0  0  0
   -1.0753    3.4824   -2.6545 H   0  0  0  0  0  0  0  0  0  0  0  0
  1  2  1  0  0  0  0
  2  3  1  0  0  0  0
  3  4  2  0  0  0  0
  4  5  2  0  0  0  0
  4  6  2  0  0  0  0
  6  7  1  0  0  0  0
  7  8  1  0  0  0  0
  4  9  1  0  0  0  0
  9 10  1  0  0  0  0
 10 11  1  0  0  0  0
 11 12  1  0  0  0  0
 12 13  2  0  0  0  0
 12 14  2  0  0  0  0
 14 15  1  0  0  0  0
 15 16  1  0  0  0  0
 12 17  2  0  0  0  0
 17 18  1  0  0  0  0
 18 19  1  0  0  0  0
  1 20  1  0  0  0  0
  1 21  1  0  0  0  0
  1 22  1  0  0  0  0
  2 23  1  0  0  0  0
  2 24  1  0  0  0  0
  7 25  1  0  0  0  0
  7 26  1  0  0  0  0
  8 27  1  0  0  0  0
  8 28  1  0  0  0  0
  8 29  1  0  0  0  0
 10 30  1  0  0  0  0
 10 31  1  0  0  0  0
 15 32  1  0  0  0  0
 15 33  1  0  0  0  0
 16 34  1  0  0  0  0
 16 35  1  0  0  0  0
 16 36  1  0  0  0  0
 18 37  1  0  0  0  0
 18 38  1  0  0  0  0
 19 39  1  0  0  0  0
 19 40  1  0  0  0  0
 19 41  1  0  0  0  0
M  END
