 xtb: 6.7.1 (edcfbbe)
          04092505213D

 41 40  0     0  0            999 V2000
    5.2941    0.6297   -0.6343 C   0  0  0  0  0  0  0  0  0  0  0  0
    4.6211    0.1661    0.6422 C   0  0  0  0  0  0  0  0  0  0  0  0
    3.4855   -0.6823    0.3807 O   0  0  0  0  0  0  0  0  0  0  0  0
    2.1156   -0.1593   -0.2285 P   0  0  0  0  0  0  0  0  0  0  0  0
    2.0164    0.2006   -2.1564 S   0  0  0  0  0  0  0  0  0  0  0  0
    1.7829    1.0830    0.7130 O   0  0  0  0  0  0  0  0  0  0  0  0
    1.2730    2.3513    0.2762 C   0  0  0  0  0  0  0  0  0  0  0  0
    2.2849    3.4354    0.5889 C   0  0  0  0  0  0  0  0  0  0  0  0
    1.0150   -1.8089    0.4709 S   0  0  0  0  0  0  0  0  0  0  0  0
   -0.1940   -2.0406   -0.8807 C   0  0  0  0  0  0  0  0  0  0  0  0
   -1.8912   -2.0612   -0.2801 S   0  0  0  0  0  0  0  0  0  0  0  0
   -2.0704    0.0367    0.0466 P   0  0  0  0  0  0  0  0  0  0  0  0
   -1.5162    1.1818   -1.4410 S   0  0  0  0  0  0  0  0  0  0  0  0
   -1.1957    0.3850    1.3136 O   0  0  0  0  0  0  0  0  0  0  0  0
   -1.3673   -0.2499    2.6065 C   0  0  0  0  0  0  0  0  0  0  0  0
   -2.1817    0.6330    3.5288 C   0  0  0  0  0  0  0  0  0  0  0  0
   -3.5489    0.1827    0.6010 O   0  0  0  0  0  0  0  0  0  0  0  0
   -4.7155   -0.4084   -0.0046 C   0  0  0  0  0  0  0  0  0  0  0  0
   -4.8750   -0.0278   -1.4610 C   0  0  0  0  0  0  0  0  0  0  0  0
    5.5841   -0.2261   -1.2386 H   0  0  0  0  0  0  0  0  0  0  0  0
    4.6130    1.2449   -1.2209 H   0  0  0  0  0  0  0  0  0  0  0  0
    6.1764    1.2117   -0.3868 H   0  0  0  0  0  0  0  0  0  0  0  0
    4.2904    1.0166    1.2443 H   0  0  0  0  0  0  0  0  0  0  0  0
    5.2831   -0.4692    1.2332 H   0  0  0  0  0  0  0  0  0  0  0  0
    1.0623    2.3048   -0.7979 H   0  0  0  0  0  0  0  0  0  0  0  0
    0.3337    2.5065    0.8114 H   0  0  0  0  0  0  0  0  0  0  0  0
    3.1947    3.2775    0.0140 H   0  0  0  0  0  0  0  0  0  0  0  0
    1.8616    4.3983    0.3223 H   0  0  0  0  0  0  0  0  0  0  0  0
    2.5250    3.4287    1.6486 H   0  0  0  0  0  0  0  0  0  0  0  0
   -0.0155   -3.0132   -1.3317 H   0  0  0  0  0  0  0  0  0  0  0  0
   -0.0653   -1.2375   -1.6138 H   0  0  0  0  0  0  0  0  0  0  0  0
   -1.8430   -1.2240    2.4640 H   0  0  0  0  0  0  0  0  0  0  0  0
   -0.3505   -0.3940    2.9786 H   0  0  0  0  0  0  0  0  0  0  0  0
   -2.2642    0.1502    4.4975 H   0  0  0  0  0  0  0  0  0  0  0  0
   -1.6975    1.5981    3.6494 H   0  0  0  0  0  0  0  0  0  0  0  0
   -3.1756    0.7893    3.1180 H   0  0  0  0  0  0  0  0  0  0  0  0
   -4.6422   -1.4937    0.1053 H   0  0  0  0  0  0  0  0  0  0  0  0
   -5.5398   -0.0260    0.5999 H   0  0  0  0  0  0  0  0  0  0  0  0
   -4.0476   -0.4270   -2.0463 H   0  0  0  0  0  0  0  0  0  0  0  0
   -5.8059   -0.4358   -1.8412 H   0  0  0  0  0  0  0  0  0  0  0  0
   -4.8825    1.0539   -1.5730 H   0  0  0  0  0  0  0  0  0  0  0  0
  1  2  1  0  0  0  0
  2  3  1  0  0  0  0
  3  4  2  0  0  0  0
  4  5  2  0  0  0  0
  4  6  2  0  0  0  0
  6  7  1  0  0  0  0
  7  8  1  0  0  0  0
  4  9  1  0  0  0  0
  9 10  1  0  0  0  0
 10 11  1  0  0  0  0
 11 12  1  0  0  0  0
 12 13  2  0  0  0  0
 12 14  2  0  0  0  0
 14 15  1  0  0  0  0
 15 16  1  0  0  0  0
 12 17  2  0  0  0  0
 17 18  1  0  0  0  0
 18 19  1  0  0  0  0
  1 20  1  0  0  0  0
  1 21  1  0  0  0  0
  1 22  1  0  0  0  0
  2 23  1  0  0  0  0
  2 24  1  0  0  0  0
  7 25  1  0  0  0  0
  7 26  1  0  0  0  0
  8 27  1  0  0  0  0
  8 28  1  0  0  0  0
  8 29  1  0  0  0  0
 10 30  1  0  0  0  0
 10 31  1  0  0  0  0
 15 32  1  0  0  0  0
 15 33  1  0  0  0  0
 16 34  1  0  0  0  0
 16 35  1  0  0  0  0
 16 36  1  0  0  0  0
 18 37  1  0  0  0  0
 18 38  1  0  0  0  0
 19 39  1  0  0  0  0
 19 40  1  0  0  0  0
 19 41  1  0  0  0  0
M  END
