 xtb: 6.7.1 (edcfbbe)
          04092505213D

 41 40  0     0  0            999 V2000
    2.5782   -3.1838   -1.5555 C   0  0  0  0  0  0  0  0  0  0  0  0
    2.8165   -2.6175   -0.1703 C   0  0  0  0  0  0  0  0  0  0  0  0
    3.2774   -1.2456   -0.2397 O   0  0  0  0  0  0  0  0  0  0  0  0
    2.3232    0.0135   -0.0958 P   0  0  0  0  0  0  0  0  0  0  0  0
    3.3792    1.6565   -0.0965 S   0  0  0  0  0  0  0  0  0  0  0  0
    1.4127   -0.2680    1.1918 O   0  0  0  0  0  0  0  0  0  0  0  0
    1.8977    0.0162    2.5242 C   0  0  0  0  0  0  0  0  0  0  0  0
    1.4752    1.3982    2.9807 C   0  0  0  0  0  0  0  0  0  0  0  0
    0.8636   -0.1818   -1.6049 S   0  0  0  0  0  0  0  0  0  0  0  0
    0.2065    1.4997   -1.4716 C   0  0  0  0  0  0  0  0  0  0  0  0
   -0.7017    1.8002    0.0614 S   0  0  0  0  0  0  0  0  0  0  0  0
   -2.2183    0.3581   -0.2928 P   0  0  0  0  0  0  0  0  0  0  0  0
   -2.8850    0.2235   -2.1246 S   0  0  0  0  0  0  0  0  0  0  0  0
   -3.3639    0.7797    0.7137 O   0  0  0  0  0  0  0  0  0  0  0  0
   -3.1629    1.2934    2.0513 C   0  0  0  0  0  0  0  0  0  0  0  0
   -2.5508    0.2638    2.9780 C   0  0  0  0  0  0  0  0  0  0  0  0
   -1.5705   -0.9814    0.2906 O   0  0  0  0  0  0  0  0  0  0  0  0
   -1.6523   -2.2501   -0.3778 C   0  0  0  0  0  0  0  0  0  0  0  0
   -2.9763   -2.9260   -0.0843 C   0  0  0  0  0  0  0  0  0  0  0  0
    3.4766   -3.0811   -2.1576 H   0  0  0  0  0  0  0  0  0  0  0  0
    2.3225   -4.2353   -1.4702 H   0  0  0  0  0  0  0  0  0  0  0  0
    1.7647   -2.6578   -2.0515 H   0  0  0  0  0  0  0  0  0  0  0  0
    3.6254   -3.1457    0.3376 H   0  0  0  0  0  0  0  0  0  0  0  0
    1.9088   -2.6565    0.4373 H   0  0  0  0  0  0  0  0  0  0  0  0
    1.4523   -0.7618    3.1474 H   0  0  0  0  0  0  0  0  0  0  0  0
    2.9879   -0.0803    2.5362 H   0  0  0  0  0  0  0  0  0  0  0  0
    0.3968    1.5069    2.9109 H   0  0  0  0  0  0  0  0  0  0  0  0
    1.7885    1.5436    4.0095 H   0  0  0  0  0  0  0  0  0  0  0  0
    1.9387    2.1591    2.3569 H   0  0  0  0  0  0  0  0  0  0  0  0
   -0.4605    1.6357   -2.3228 H   0  0  0  0  0  0  0  0  0  0  0  0
    1.0319    2.2120   -1.4914 H   0  0  0  0  0  0  0  0  0  0  0  0
   -2.5346    2.1861    1.9847 H   0  0  0  0  0  0  0  0  0  0  0  0
   -4.1689    1.5744    2.3673 H   0  0  0  0  0  0  0  0  0  0  0  0
   -1.5627   -0.0194    2.6218 H   0  0  0  0  0  0  0  0  0  0  0  0
   -2.4652    0.6883    3.9736 H   0  0  0  0  0  0  0  0  0  0  0  0
   -3.1766   -0.6238    3.0191 H   0  0  0  0  0  0  0  0  0  0  0  0
   -1.5256   -2.0967   -1.4542 H   0  0  0  0  0  0  0  0  0  0  0  0
   -0.8091   -2.8214    0.0134 H   0  0  0  0  0  0  0  0  0  0  0  0
   -3.7914   -2.3070   -0.4576 H   0  0  0  0  0  0  0  0  0  0  0  0
   -3.0078   -3.8900   -0.5817 H   0  0  0  0  0  0  0  0  0  0  0  0
   -3.1019   -3.0663    0.9858 H   0  0  0  0  0  0  0  0  0  0  0  0
  1  2  1  0  0  0  0
  2  3  1  0  0  0  0
  3  4  2  0  0  0  0
  4  5  2  0  0  0  0
  4  6  1  0  0  0  0
  6  7  1  0  0  0  0
  7  8  1  0  0  0  0
  4  9  1  0  0  0  0
  9 10  1  0  0  0  0
 10 11  1  0  0  0  0
 11 12  1  0  0  0  0
 12 13  2  0  0  0  0
 12 14  2  0  0  0  0
 14 15  1  0  0  0  0
 15 16  1  0  0  0  0
 12 17  1  0  0  0  0
 17 18  1  0  0  0  0
 18 19  1  0  0  0  0
  1 20  1  0  0  0  0
  1 21  1  0  0  0  0
  1 22  1  0  0  0  0
  2 23  1  0  0  0  0
  2 24  1  0  0  0  0
  7 25  1  0  0  0  0
  7 26  1  0  0  0  0
  8 27  1  0  0  0  0
  8 28  1  0  0  0  0
  8 29  1  0  0  0  0
 10 30  1  0  0  0  0
 10 31  1  0  0  0  0
 15 32  1  0  0  0  0
 15 33  1  0  0  0  0
 16 34  1  0  0  0  0
 16 35  1  0  0  0  0
 16 36  1  0  0  0  0
 18 37  1  0  0  0  0
 18 38  1  0  0  0  0
 19 39  1  0  0  0  0
 19 40  1  0  0  0  0
 19 41  1  0  0  0  0
M  END
