 xtb: 6.7.1 (edcfbbe)
          04092505203D

 41 40  0     0  0            999 V2000
    4.7407   -1.6786   -0.2075 C   0  0  0  0  0  0  0  0  0  0  0  0
    4.5310   -0.2872   -0.7730 C   0  0  0  0  0  0  0  0  0  0  0  0
    3.5266    0.4351   -0.0344 O   0  0  0  0  0  0  0  0  0  0  0  0
    2.0133    0.5378   -0.5182 P   0  0  0  0  0  0  0  0  0  0  0  0
    1.7945    0.9680   -2.4115 S   0  0  0  0  0  0  0  0  0  0  0  0
    1.4458    1.6262    0.4675 O   0  0  0  0  0  0  0  0  0  0  0  0
    1.5896    1.5434    1.9072 C   0  0  0  0  0  0  0  0  0  0  0  0
    2.7372    2.4096    2.3824 C   0  0  0  0  0  0  0  0  0  0  0  0
    1.2022   -1.3341    0.0909 S   0  0  0  0  0  0  0  0  0  0  0  0
   -0.0498   -1.6107   -1.2038 C   0  0  0  0  0  0  0  0  0  0  0  0
   -1.7012   -1.8887   -0.5313 S   0  0  0  0  0  0  0  0  0  0  0  0
   -2.0338    0.0655    0.2365 P   0  0  0  0  0  0  0  0  0  0  0  0
   -1.4503    1.5537   -0.9006 S   0  0  0  0  0  0  0  0  0  0  0  0
   -1.3331    0.1129    1.6494 O   0  0  0  0  0  0  0  0  0  0  0  0
   -1.2833   -0.9571    2.6315 C   0  0  0  0  0  0  0  0  0  0  0  0
   -2.6481   -1.5043    2.9850 C   0  0  0  0  0  0  0  0  0  0  0  0
   -3.5782    0.0873    0.6044 O   0  0  0  0  0  0  0  0  0  0  0  0
   -4.5949    0.4671   -0.3376 C   0  0  0  0  0  0  0  0  0  0  0  0
   -4.7313   -0.5300   -1.4703 C   0  0  0  0  0  0  0  0  0  0  0  0
    3.8470   -2.2848   -0.3299 H   0  0  0  0  0  0  0  0  0  0  0  0
    5.5641   -2.1499   -0.7343 H   0  0  0  0  0  0  0  0  0  0  0  0
    4.9803   -1.6179    0.8503 H   0  0  0  0  0  0  0  0  0  0  0  0
    4.2368   -0.3193   -1.8272 H   0  0  0  0  0  0  0  0  0  0  0  0
    5.4334    0.3187   -0.6710 H   0  0  0  0  0  0  0  0  0  0  0  0
    0.6312    1.8964    2.2945 H   0  0  0  0  0  0  0  0  0  0  0  0
    1.7378    0.4964    2.1875 H   0  0  0  0  0  0  0  0  0  0  0  0
    2.5903    3.4339    2.0506 H   0  0  0  0  0  0  0  0  0  0  0  0
    2.7732    2.3843    3.4670 H   0  0  0  0  0  0  0  0  0  0  0  0
    3.6774    2.0420    1.9805 H   0  0  0  0  0  0  0  0  0  0  0  0
    0.2151   -2.5165   -1.7430 H   0  0  0  0  0  0  0  0  0  0  0  0
   -0.0518   -0.7423   -1.8688 H   0  0  0  0  0  0  0  0  0  0  0  0
   -0.6339   -1.7458    2.2404 H   0  0  0  0  0  0  0  0  0  0  0  0
   -0.8071   -0.4798    3.4893 H   0  0  0  0  0  0  0  0  0  0  0  0
   -2.5394   -2.2168    3.7970 H   0  0  0  0  0  0  0  0  0  0  0  0
   -3.3089   -0.6999    3.2970 H   0  0  0  0  0  0  0  0  0  0  0  0
   -3.0878   -2.0092    2.1276 H   0  0  0  0  0  0  0  0  0  0  0  0
   -5.5018    0.5173    0.2666 H   0  0  0  0  0  0  0  0  0  0  0  0
   -4.3516    1.4605   -0.7279 H   0  0  0  0  0  0  0  0  0  0  0  0
   -5.5968   -0.2717   -2.0721 H   0  0  0  0  0  0  0  0  0  0  0  0
   -3.8444   -0.4999   -2.1015 H   0  0  0  0  0  0  0  0  0  0  0  0
   -4.8508   -1.5366   -1.0780 H   0  0  0  0  0  0  0  0  0  0  0  0
  1  2  1  0  0  0  0
  2  3  1  0  0  0  0
  3  4  2  0  0  0  0
  4  5  2  0  0  0  0
  4  6  2  0  0  0  0
  6  7  1  0  0  0  0
  7  8  1  0  0  0  0
  4  9  1  0  0  0  0
  9 10  1  0  0  0  0
 10 11  1  0  0  0  0
 11 12  1  0  0  0  0
 12 13  2  0  0  0  0
 12 14  2  0  0  0  0
 14 15  1  0  0  0  0
 15 16  1  0  0  0  0
 12 17  2  0  0  0  0
 17 18  1  0  0  0  0
 18 19  1  0  0  0  0
  1 20  1  0  0  0  0
  1 21  1  0  0  0  0
  1 22  1  0  0  0  0
  2 23  1  0  0  0  0
  2 24  1  0  0  0  0
  7 25  1  0  0  0  0
  7 26  1  0  0  0  0
  8 27  1  0  0  0  0
  8 28  1  0  0  0  0
  8 29  1  0  0  0  0
 10 30  1  0  0  0  0
 10 31  1  0  0  0  0
 15 32  1  0  0  0  0
 15 33  1  0  0  0  0
 16 34  1  0  0  0  0
 16 35  1  0  0  0  0
 16 36  1  0  0  0  0
 18 37  1  0  0  0  0
 18 38  1  0  0  0  0
 19 39  1  0  0  0  0
 19 40  1  0  0  0  0
 19 41  1  0  0  0  0
M  END
