 xtb: 6.7.1 (edcfbbe)
          04092505213D

 41 40  0     0  0            999 V2000
    2.6727    0.4160    3.6190 C   0  0  0  0  0  0  0  0  0  0  0  0
    1.9410    0.3014    2.2974 C   0  0  0  0  0  0  0  0  0  0  0  0
    2.7195   -0.5537    1.4386 O   0  0  0  0  0  0  0  0  0  0  0  0
    2.1428   -1.1697    0.0908 P   0  0  0  0  0  0  0  0  0  0  0  0
    0.4081   -2.0670    0.2515 S   0  0  0  0  0  0  0  0  0  0  0  0
    3.2753   -2.1773   -0.3224 O   0  0  0  0  0  0  0  0  0  0  0  0
    4.6975   -1.9803   -0.1129 C   0  0  0  0  0  0  0  0  0  0  0  0
    5.2324   -0.7774   -0.8588 C   0  0  0  0  0  0  0  0  0  0  0  0
    2.2199    0.4264   -1.3353 S   0  0  0  0  0  0  0  0  0  0  0  0
    0.4636    0.6822   -1.6195 C   0  0  0  0  0  0  0  0  0  0  0  0
   -0.3577    1.3863   -0.1513 S   0  0  0  0  0  0  0  0  0  0  0  0
   -2.3494    0.7417   -0.5715 P   0  0  0  0  0  0  0  0  0  0  0  0
   -2.5309   -0.7372   -1.8373 S   0  0  0  0  0  0  0  0  0  0  0  0
   -3.0848    2.0216   -1.1187 O   0  0  0  0  0  0  0  0  0  0  0  0
   -3.1286    3.2900   -0.4171 C   0  0  0  0  0  0  0  0  0  0  0  0
   -4.4028    3.4170    0.3920 C   0  0  0  0  0  0  0  0  0  0  0  0
   -2.9758    0.5819    0.8799 O   0  0  0  0  0  0  0  0  0  0  0  0
   -2.6612   -0.5134    1.7616 C   0  0  0  0  0  0  0  0  0  0  0  0
   -3.6831   -1.6238    1.6212 C   0  0  0  0  0  0  0  0  0  0  0  0
    2.7739   -0.5641    4.0763 H   0  0  0  0  0  0  0  0  0  0  0  0
    3.6613    0.8368    3.4615 H   0  0  0  0  0  0  0  0  0  0  0  0
    2.1080    1.0639    4.2811 H   0  0  0  0  0  0  0  0  0  0  0  0
    1.8315    1.2754    1.8114 H   0  0  0  0  0  0  0  0  0  0  0  0
    0.9483   -0.1426    2.4238 H   0  0  0  0  0  0  0  0  0  0  0  0
    4.8724   -1.8878    0.9600 H   0  0  0  0  0  0  0  0  0  0  0  0
    5.1307   -2.9105   -0.4835 H   0  0  0  0  0  0  0  0  0  0  0  0
    6.3097   -0.7333   -0.7329 H   0  0  0  0  0  0  0  0  0  0  0  0
    4.9980   -0.8504   -1.9177 H   0  0  0  0  0  0  0  0  0  0  0  0
    4.7919    0.1381   -0.4678 H   0  0  0  0  0  0  0  0  0  0  0  0
   -0.0254   -0.2661   -1.8585 H   0  0  0  0  0  0  0  0  0  0  0  0
    0.3883    1.3838   -2.4469 H   0  0  0  0  0  0  0  0  0  0  0  0
   -2.2423    3.3723    0.2188 H   0  0  0  0  0  0  0  0  0  0  0  0
   -3.0858    4.0377   -1.2109 H   0  0  0  0  0  0  0  0  0  0  0  0
   -4.4324    2.6610    1.1716 H   0  0  0  0  0  0  0  0  0  0  0  0
   -4.4377    4.4027    0.8452 H   0  0  0  0  0  0  0  0  0  0  0  0
   -5.2669    3.2875   -0.2537 H   0  0  0  0  0  0  0  0  0  0  0  0
   -1.6585   -0.8887    1.5401 H   0  0  0  0  0  0  0  0  0  0  0  0
   -2.6796   -0.0769    2.7619 H   0  0  0  0  0  0  0  0  0  0  0  0
   -4.6835   -1.2419    1.8044 H   0  0  0  0  0  0  0  0  0  0  0  0
   -3.6429   -2.0414    0.6171 H   0  0  0  0  0  0  0  0  0  0  0  0
   -3.4566   -2.4093    2.3349 H   0  0  0  0  0  0  0  0  0  0  0  0
  1  2  1  0  0  0  0
  2  3  1  0  0  0  0
  3  4  2  0  0  0  0
  4  5  2  0  0  0  0
  4  6  2  0  0  0  0
  6  7  1  0  0  0  0
  7  8  1  0  0  0  0
  4  9  1  0  0  0  0
  9 10  1  0  0  0  0
 10 11  1  0  0  0  0
 11 12  1  0  0  0  0
 12 13  2  0  0  0  0
 12 14  2  0  0  0  0
 14 15  1  0  0  0  0
 15 16  1  0  0  0  0
 12 17  2  0  0  0  0
 17 18  1  0  0  0  0
 18 19  1  0  0  0  0
  1 20  1  0  0  0  0
  1 21  1  0  0  0  0
  1 22  1  0  0  0  0
  2 23  1  0  0  0  0
  2 24  1  0  0  0  0
  7 25  1  0  0  0  0
  7 26  1  0  0  0  0
  8 27  1  0  0  0  0
  8 28  1  0  0  0  0
  8 29  1  0  0  0  0
 10 30  1  0  0  0  0
 10 31  1  0  0  0  0
 15 32  1  0  0  0  0
 15 33  1  0  0  0  0
 16 34  1  0  0  0  0
 16 35  1  0  0  0  0
 16 36  1  0  0  0  0
 18 37  1  0  0  0  0
 18 38  1  0  0  0  0
 19 39  1  0  0  0  0
 19 40  1  0  0  0  0
 19 41  1  0  0  0  0
M  END
