 xtb: 6.7.1 (edcfbbe)
          04092505203D

 41 40  0     0  0            999 V2000
    2.9614    0.0005   -2.0865 C   0  0  0  0  0  0  0  0  0  0  0  0
    2.5592    1.2472   -1.3274 C   0  0  0  0  0  0  0  0  0  0  0  0
    1.6170    0.9858   -0.2589 O   0  0  0  0  0  0  0  0  0  0  0  0
    1.8640    0.0457    0.9872 P   0  0  0  0  0  0  0  0  0  0  0  0
    0.7848    0.5454    2.5427 S   0  0  0  0  0  0  0  0  0  0  0  0
    3.4350    0.1606    1.1913 O   0  0  0  0  0  0  0  0  0  0  0  0
    4.0831   -0.2028    2.4233 C   0  0  0  0  0  0  0  0  0  0  0  0
    4.0216   -1.6929    2.6881 C   0  0  0  0  0  0  0  0  0  0  0  0
    1.5645   -1.9620    0.3349 S   0  0  0  0  0  0  0  0  0  0  0  0
   -0.2175   -1.8790    0.0909 C   0  0  0  0  0  0  0  0  0  0  0  0
   -0.6499   -1.1288   -1.5311 S   0  0  0  0  0  0  0  0  0  0  0  0
   -2.0562    0.2974   -0.9302 P   0  0  0  0  0  0  0  0  0  0  0  0
   -2.8856    1.3661   -2.3450 S   0  0  0  0  0  0  0  0  0  0  0  0
   -1.2020    1.0714    0.1599 O   0  0  0  0  0  0  0  0  0  0  0  0
   -1.7123    2.2742    0.7766 C   0  0  0  0  0  0  0  0  0  0  0  0
   -1.0749    3.4942    0.1450 C   0  0  0  0  0  0  0  0  0  0  0  0
   -3.1073   -0.4618    0.0094 O   0  0  0  0  0  0  0  0  0  0  0  0
   -4.3259   -1.0161   -0.5133 C   0  0  0  0  0  0  0  0  0  0  0  0
   -4.0709   -2.2657   -1.3319 C   0  0  0  0  0  0  0  0  0  0  0  0
    3.5211   -0.6737   -1.4418 H   0  0  0  0  0  0  0  0  0  0  0  0
    2.0827   -0.5175   -2.4654 H   0  0  0  0  0  0  0  0  0  0  0  0
    3.5888    0.2903   -2.9238 H   0  0  0  0  0  0  0  0  0  0  0  0
    2.0174    1.9458   -1.9681 H   0  0  0  0  0  0  0  0  0  0  0  0
    3.4321    1.7392   -0.8939 H   0  0  0  0  0  0  0  0  0  0  0  0
    5.1095    0.1403    2.2856 H   0  0  0  0  0  0  0  0  0  0  0  0
    3.6107    0.3529    3.2393 H   0  0  0  0  0  0  0  0  0  0  0  0
    4.6384   -1.9275    3.5497 H   0  0  0  0  0  0  0  0  0  0  0  0
    2.9963   -1.9935    2.8964 H   0  0  0  0  0  0  0  0  0  0  0  0
    4.3804   -2.2477    1.8252 H   0  0  0  0  0  0  0  0  0  0  0  0
   -0.6701   -1.2895    0.8877 H   0  0  0  0  0  0  0  0  0  0  0  0
   -0.5772   -2.9040    0.0907 H   0  0  0  0  0  0  0  0  0  0  0  0
   -2.8008    2.2961    0.6745 H   0  0  0  0  0  0  0  0  0  0  0  0
   -1.4432    2.1828    1.8312 H   0  0  0  0  0  0  0  0  0  0  0  0
   -1.4153    4.3850    0.6629 H   0  0  0  0  0  0  0  0  0  0  0  0
    0.0070    3.4216    0.2227 H   0  0  0  0  0  0  0  0  0  0  0  0
   -1.3515    3.5606   -0.9054 H   0  0  0  0  0  0  0  0  0  0  0  0
   -4.9234   -1.2269    0.3747 H   0  0  0  0  0  0  0  0  0  0  0  0
   -4.8191   -0.2517   -1.1228 H   0  0  0  0  0  0  0  0  0  0  0  0
   -3.5351   -3.0047   -0.7420 H   0  0  0  0  0  0  0  0  0  0  0  0
   -5.0204   -2.6828   -1.6518 H   0  0  0  0  0  0  0  0  0  0  0  0
   -3.4798   -2.0178   -2.2132 H   0  0  0  0  0  0  0  0  0  0  0  0
  1  2  1  0  0  0  0
  2  3  1  0  0  0  0
  3  4  2  0  0  0  0
  4  5  2  0  0  0  0
  4  6  2  0  0  0  0
  6  7  1  0  0  0  0
  7  8  1  0  0  0  0
  4  9  1  0  0  0  0
  9 10  1  0  0  0  0
 10 11  1  0  0  0  0
 11 12  1  0  0  0  0
 12 13  2  0  0  0  0
 12 14  1  0  0  0  0
 14 15  1  0  0  0  0
 15 16  1  0  0  0  0
 12 17  1  0  0  0  0
 17 18  1  0  0  0  0
 18 19  1  0  0  0  0
  1 20  1  0  0  0  0
  1 21  1  0  0  0  0
  1 22  1  0  0  0  0
  2 23  1  0  0  0  0
  2 24  1  0  0  0  0
  7 25  1  0  0  0  0
  7 26  1  0  0  0  0
  8 27  1  0  0  0  0
  8 28  1  0  0  0  0
  8 29  1  0  0  0  0
 10 30  1  0  0  0  0
 10 31  1  0  0  0  0
 15 32  1  0  0  0  0
 15 33  1  0  0  0  0
 16 34  1  0  0  0  0
 16 35  1  0  0  0  0
 16 36  1  0  0  0  0
 18 37  1  0  0  0  0
 18 38  1  0  0  0  0
 19 39  1  0  0  0  0
 19 40  1  0  0  0  0
 19 41  1  0  0  0  0
M  END
