 xtb: 6.7.1 (edcfbbe)
          04092507313D

 38 37  0     0  0            999 V2000
    4.2912   -3.3307    0.1908 C   0  0  0  0  0  0  0  0  0  0  0  0
    2.8917   -2.7618    0.3093 C   0  0  0  0  0  0  0  0  0  0  0  0
    2.6725   -1.8860   -0.8137 O   0  0  0  0  0  0  0  0  0  0  0  0
    1.4888   -1.3544   -0.9611 C   0  0  0  0  0  0  0  0  0  0  0  0
    0.5403   -1.5982   -0.2285 O   0  0  0  0  0  0  0  0  0  0  0  0
    1.3926   -0.4242   -2.1452 C   0  0  0  0  0  0  0  0  0  0  0  0
    0.5603    0.7887   -1.7507 C   0  0  0  0  0  0  0  0  0  0  0  0
    0.5428    1.5337   -2.5503 H   0  0  0  0  0  0  0  0  0  0  0  0
    1.1113    1.4333   -0.4877 C   0  0  0  0  0  0  0  0  0  0  0  0
    2.1220    1.0386    0.0518 O   0  0  0  0  0  0  0  0  0  0  0  0
    0.4003    2.4689   -0.1125 O   0  0  0  0  0  0  0  0  0  0  0  0
    0.8455    3.2190    1.0369 C   0  0  0  0  0  0  0  0  0  0  0  0
    0.0753    4.5235    1.0712 C   0  0  0  0  0  0  0  0  0  0  0  0
   -1.2143    0.4001   -1.5346 S   0  0  0  0  0  0  0  0  0  0  0  0
   -1.4983   -0.3600    0.4401 P   0  0  0  0  0  0  0  0  0  0  0  0
   -0.3601    0.0277    1.9907 S   0  0  0  0  0  0  0  0  0  0  0  0
   -2.9555    0.3073    0.6730 O   0  0  0  0  0  0  0  0  0  0  0  0
   -3.0964    1.6978    0.9606 C   0  0  0  0  0  0  0  0  0  0  0  0
   -1.9654   -1.8671    0.3290 O   0  0  0  0  0  0  0  0  0  0  0  0
   -3.0451   -2.2753   -0.5322 C   0  0  0  0  0  0  0  0  0  0  0  0
    5.0175   -2.5239    0.1894 H   0  0  0  0  0  0  0  0  0  0  0  0
    4.4833   -3.9850    1.0345 H   0  0  0  0  0  0  0  0  0  0  0  0
    4.3870   -3.8945   -0.7321 H   0  0  0  0  0  0  0  0  0  0  0  0
    2.7623   -2.1740    1.2243 H   0  0  0  0  0  0  0  0  0  0  0  0
    2.1250   -3.5433    0.2937 H   0  0  0  0  0  0  0  0  0  0  0  0
    0.9101   -0.9469   -2.9727 H   0  0  0  0  0  0  0  0  0  0  0  0
    2.3992   -0.1241   -2.4343 H   0  0  0  0  0  0  0  0  0  0  0  0
    0.6633    2.6078    1.9272 H   0  0  0  0  0  0  0  0  0  0  0  0
    1.9239    3.3763    0.9412 H   0  0  0  0  0  0  0  0  0  0  0  0
    0.2543    5.0879    0.1610 H   0  0  0  0  0  0  0  0  0  0  0  0
   -0.9887    4.3263    1.1617 H   0  0  0  0  0  0  0  0  0  0  0  0
    0.4041    5.1046    1.9259 H   0  0  0  0  0  0  0  0  0  0  0  0
   -4.1417    1.8392    1.2224 H   0  0  0  0  0  0  0  0  0  0  0  0
   -2.8353    2.2894    0.0821 H   0  0  0  0  0  0  0  0  0  0  0  0
   -2.4518    1.9697    1.7988 H   0  0  0  0  0  0  0  0  0  0  0  0
   -3.9893   -1.8993   -0.1419 H   0  0  0  0  0  0  0  0  0  0  0  0
   -3.0223   -3.3620   -0.5152 H   0  0  0  0  0  0  0  0  0  0  0  0
   -2.8840   -1.9008   -1.5434 H   0  0  0  0  0  0  0  0  0  0  0  0
  1  2  1  0  0  0  0
  2  3  1  0  0  0  0
  3  4  4  0  0  0  0
  4  5  2  0  0  0  0
  4  6  1  0  0  0  0
  6  7  1  0  0  0  0
  7  8  1  0  0  0  0
  7  9  1  0  0  0  0
  9 10  2  0  0  0  0
  9 11  4  0  0  0  0
 11 12  1  0  0  0  0
 12 13  1  0  0  0  0
  7 14  1  0  0  0  0
 14 15  1  0  0  0  0
 15 16  2  0  0  0  0
 15 17  1  0  0  0  0
 17 18  1  0  0  0  0
 15 19  2  0  0  0  0
 19 20  1  0  0  0  0
  1 21  1  0  0  0  0
  1 22  1  0  0  0  0
  1 23  1  0  0  0  0
  2 24  1  0  0  0  0
  2 25  1  0  0  0  0
  6 26  1  0  0  0  0
  6 27  1  0  0  0  0
 12 28  1  0  0  0  0
 12 29  1  0  0  0  0
 13 30  1  0  0  0  0
 13 31  1  0  0  0  0
 13 32  1  0  0  0  0
 18 33  1  0  0  0  0
 18 34  1  0  0  0  0
 18 35  1  0  0  0  0
 20 36  1  0  0  0  0
 20 37  1  0  0  0  0
 20 38  1  0  0  0  0
M  END
