 xtb: 6.7.1 (edcfbbe)
          04092505213D

 41 40  0     0  0            999 V2000
    4.5488    1.5074    0.1762 C   0  0  0  0  0  0  0  0  0  0  0  0
    3.4206    1.2531   -0.8027 C   0  0  0  0  0  0  0  0  0  0  0  0
    2.7671   -0.0004   -0.5310 O   0  0  0  0  0  0  0  0  0  0  0  0
    1.7718   -0.1832    0.7093 P   0  0  0  0  0  0  0  0  0  0  0  0
    0.9692    1.4581    1.4011 S   0  0  0  0  0  0  0  0  0  0  0  0
    2.5888   -0.8629    1.8862 O   0  0  0  0  0  0  0  0  0  0  0  0
    3.4025   -2.0502    1.7222 C   0  0  0  0  0  0  0  0  0  0  0  0
    2.7179   -3.2505    2.3446 C   0  0  0  0  0  0  0  0  0  0  0  0
    0.6346   -1.7983   -0.0637 S   0  0  0  0  0  0  0  0  0  0  0  0
    0.3133   -1.1993   -1.7494 C   0  0  0  0  0  0  0  0  0  0  0  0
   -0.1858    0.5389   -1.8326 S   0  0  0  0  0  0  0  0  0  0  0  0
   -2.1045    0.2925   -1.0059 P   0  0  0  0  0  0  0  0  0  0  0  0
   -3.2258   -1.1143   -1.7591 S   0  0  0  0  0  0  0  0  0  0  0  0
   -2.7839    1.7138   -1.1693 O   0  0  0  0  0  0  0  0  0  0  0  0
   -2.2173    2.9286   -0.6095 C   0  0  0  0  0  0  0  0  0  0  0  0
   -3.2640    3.6082    0.2493 C   0  0  0  0  0  0  0  0  0  0  0  0
   -1.7172    0.1317    0.5369 O   0  0  0  0  0  0  0  0  0  0  0  0
   -2.6881   -0.3001    1.5143 C   0  0  0  0  0  0  0  0  0  0  0  0
   -2.5145   -1.7727    1.8259 C   0  0  0  0  0  0  0  0  0  0  0  0
    5.0429    2.4397   -0.0779 H   0  0  0  0  0  0  0  0  0  0  0  0
    4.1469    1.5840    1.1863 H   0  0  0  0  0  0  0  0  0  0  0  0
    5.2710    0.6958    0.1426 H   0  0  0  0  0  0  0  0  0  0  0  0
    3.7826    1.1500   -1.8264 H   0  0  0  0  0  0  0  0  0  0  0  0
    2.6755    2.0532   -0.7523 H   0  0  0  0  0  0  0  0  0  0  0  0
    3.5957   -2.2089    0.6586 H   0  0  0  0  0  0  0  0  0  0  0  0
    4.3365   -1.8186    2.2371 H   0  0  0  0  0  0  0  0  0  0  0  0
    2.4918   -3.0492    3.3879 H   0  0  0  0  0  0  0  0  0  0  0  0
    1.7907   -3.4731    1.8206 H   0  0  0  0  0  0  0  0  0  0  0  0
    3.3782   -4.1095    2.2797 H   0  0  0  0  0  0  0  0  0  0  0  0
   -0.4870   -1.8251   -2.1474 H   0  0  0  0  0  0  0  0  0  0  0  0
    1.2198   -1.2896   -2.3426 H   0  0  0  0  0  0  0  0  0  0  0  0
   -1.3256    2.6829   -0.0249 H   0  0  0  0  0  0  0  0  0  0  0  0
   -1.9348    3.5487   -1.4620 H   0  0  0  0  0  0  0  0  0  0  0  0
   -3.5189    2.9828    1.1013 H   0  0  0  0  0  0  0  0  0  0  0  0
   -2.8665    4.5519    0.6087 H   0  0  0  0  0  0  0  0  0  0  0  0
   -4.1616    3.7912   -0.3348 H   0  0  0  0  0  0  0  0  0  0  0  0
   -2.4890    0.3200    2.3910 H   0  0  0  0  0  0  0  0  0  0  0  0
   -3.6942   -0.0958    1.1341 H   0  0  0  0  0  0  0  0  0  0  0  0
   -2.7017   -2.3690    0.9353 H   0  0  0  0  0  0  0  0  0  0  0  0
   -1.5005   -1.9638    2.1679 H   0  0  0  0  0  0  0  0  0  0  0  0
   -3.2176   -2.0582    2.6015 H   0  0  0  0  0  0  0  0  0  0  0  0
  1  2  1  0  0  0  0
  2  3  1  0  0  0  0
  3  4  1  0  0  0  0
  4  5  2  0  0  0  0
  4  6  2  0  0  0  0
  6  7  1  0  0  0  0
  7  8  1  0  0  0  0
  4  9  1  0  0  0  0
  9 10  1  0  0  0  0
 10 11  1  0  0  0  0
 11 12  1  0  0  0  0
 12 13  2  0  0  0  0
 12 14  2  0  0  0  0
 14 15  1  0  0  0  0
 15 16  1  0  0  0  0
 12 17  1  0  0  0  0
 17 18  1  0  0  0  0
 18 19  1  0  0  0  0
  1 20  1  0  0  0  0
  1 21  1  0  0  0  0
  1 22  1  0  0  0  0
  2 23  1  0  0  0  0
  2 24  1  0  0  0  0
  7 25  1  0  0  0  0
  7 26  1  0  0  0  0
  8 27  1  0  0  0  0
  8 28  1  0  0  0  0
  8 29  1  0  0  0  0
 10 30  1  0  0  0  0
 10 31  1  0  0  0  0
 15 32  1  0  0  0  0
 15 33  1  0  0  0  0
 16 34  1  0  0  0  0
 16 35  1  0  0  0  0
 16 36  1  0  0  0  0
 18 37  1  0  0  0  0
 18 38  1  0  0  0  0
 19 39  1  0  0  0  0
 19 40  1  0  0  0  0
 19 41  1  0  0  0  0
M  END
