 xtb: 6.7.1 (edcfbbe)
          04092505203D

 41 40  0     0  0            999 V2000
    4.4083    2.1355   -0.0590 C   0  0  0  0  0  0  0  0  0  0  0  0
    4.6048    0.6924   -0.4765 C   0  0  0  0  0  0  0  0  0  0  0  0
    3.3705    0.0716   -0.8795 O   0  0  0  0  0  0  0  0  0  0  0  0
    2.2029   -0.2430    0.1490 P   0  0  0  0  0  0  0  0  0  0  0  0
    2.7877   -0.8697    1.9148 S   0  0  0  0  0  0  0  0  0  0  0  0
    1.2899   -1.2373   -0.6768 O   0  0  0  0  0  0  0  0  0  0  0  0
    1.4241   -2.6691   -0.6005 C   0  0  0  0  0  0  0  0  0  0  0  0
    2.7340   -3.1445   -1.1914 C   0  0  0  0  0  0  0  0  0  0  0  0
    0.9823    1.4743    0.0979 S   0  0  0  0  0  0  0  0  0  0  0  0
    0.0230    1.0847    1.5859 C   0  0  0  0  0  0  0  0  0  0  0  0
   -1.0238   -0.3920    1.4181 S   0  0  0  0  0  0  0  0  0  0  0  0
   -2.0981    0.1026   -0.3439 P   0  0  0  0  0  0  0  0  0  0  0  0
   -1.3837   -0.2467   -2.1275 S   0  0  0  0  0  0  0  0  0  0  0  0
   -2.4052    1.6347   -0.0005 O   0  0  0  0  0  0  0  0  0  0  0  0
   -2.6343    2.6103   -1.0350 C   0  0  0  0  0  0  0  0  0  0  0  0
   -4.0106    2.4462   -1.6462 C   0  0  0  0  0  0  0  0  0  0  0  0
   -3.4500   -0.7082   -0.1740 O   0  0  0  0  0  0  0  0  0  0  0  0
   -4.2954   -0.6266    1.0002 C   0  0  0  0  0  0  0  0  0  0  0  0
   -4.1781   -1.8943    1.8222 C   0  0  0  0  0  0  0  0  0  0  0  0
    3.8836    2.6852   -0.8366 H   0  0  0  0  0  0  0  0  0  0  0  0
    3.8233    2.1816    0.8587 H   0  0  0  0  0  0  0  0  0  0  0  0
    5.3765    2.5932    0.1167 H   0  0  0  0  0  0  0  0  0  0  0  0
    5.0312    0.1092    0.3462 H   0  0  0  0  0  0  0  0  0  0  0  0
    5.2390    0.6096   -1.3600 H   0  0  0  0  0  0  0  0  0  0  0  0
    1.3366   -2.9672    0.4500 H   0  0  0  0  0  0  0  0  0  0  0  0
    0.5646   -3.0381   -1.1632 H   0  0  0  0  0  0  0  0  0  0  0  0
    2.7497   -4.2297   -1.2045 H   0  0  0  0  0  0  0  0  0  0  0  0
    2.8448   -2.7663   -2.2045 H   0  0  0  0  0  0  0  0  0  0  0  0
    3.5651   -2.7840   -0.5858 H   0  0  0  0  0  0  0  0  0  0  0  0
   -0.5970    1.9512    1.7980 H   0  0  0  0  0  0  0  0  0  0  0  0
    0.7016    0.8676    2.4118 H   0  0  0  0  0  0  0  0  0  0  0  0
   -2.5231    3.5696   -0.5279 H   0  0  0  0  0  0  0  0  0  0  0  0
   -1.8564    2.5002   -1.7970 H   0  0  0  0  0  0  0  0  0  0  0  0
   -4.7781    2.5265   -0.8808 H   0  0  0  0  0  0  0  0  0  0  0  0
   -4.1665    3.2161   -2.3951 H   0  0  0  0  0  0  0  0  0  0  0  0
   -4.0843    1.4689   -2.1228 H   0  0  0  0  0  0  0  0  0  0  0  0
   -4.0157    0.2538    1.5836 H   0  0  0  0  0  0  0  0  0  0  0  0
   -5.3060   -0.5040    0.6067 H   0  0  0  0  0  0  0  0  0  0  0  0
   -4.8695   -1.8427    2.6573 H   0  0  0  0  0  0  0  0  0  0  0  0
   -4.4186   -2.7580    1.2086 H   0  0  0  0  0  0  0  0  0  0  0  0
   -3.1653   -2.0072    2.2037 H   0  0  0  0  0  0  0  0  0  0  0  0
  1  2  1  0  0  0  0
  2  3  1  0  0  0  0
  3  4  2  0  0  0  0
  4  5  2  0  0  0  0
  4  6  2  0  0  0  0
  6  7  1  0  0  0  0
  7  8  1  0  0  0  0
  4  9  1  0  0  0  0
  9 10  1  0  0  0  0
 10 11  1  0  0  0  0
 11 12  1  0  0  0  0
 12 13  2  0  0  0  0
 12 14  1  0  0  0  0
 14 15  1  0  0  0  0
 15 16  1  0  0  0  0
 12 17  2  0  0  0  0
 17 18  1  0  0  0  0
 18 19  1  0  0  0  0
  1 20  1  0  0  0  0
  1 21  1  0  0  0  0
  1 22  1  0  0  0  0
  2 23  1  0  0  0  0
  2 24  1  0  0  0  0
  7 25  1  0  0  0  0
  7 26  1  0  0  0  0
  8 27  1  0  0  0  0
  8 28  1  0  0  0  0
  8 29  1  0  0  0  0
 10 30  1  0  0  0  0
 10 31  1  0  0  0  0
 15 32  1  0  0  0  0
 15 33  1  0  0  0  0
 16 34  1  0  0  0  0
 16 35  1  0  0  0  0
 16 36  1  0  0  0  0
 18 37  1  0  0  0  0
 18 38  1  0  0  0  0
 19 39  1  0  0  0  0
 19 40  1  0  0  0  0
 19 41  1  0  0  0  0
M  END
