 xtb: 6.7.1 (edcfbbe)
          04092505203D

 41 40  0     0  0            999 V2000
    5.3832    0.7566   -0.4208 C   0  0  0  0  0  0  0  0  0  0  0  0
    4.8502   -0.6268   -0.7280 C   0  0  0  0  0  0  0  0  0  0  0  0
    3.6281   -0.9070   -0.0141 O   0  0  0  0  0  0  0  0  0  0  0  0
    2.2788   -0.1431   -0.3231 P   0  0  0  0  0  0  0  0  0  0  0  0
    1.9737    0.3193   -2.2068 S   0  0  0  0  0  0  0  0  0  0  0  0
    2.3755    1.0809    0.6888 O   0  0  0  0  0  0  0  0  0  0  0  0
    1.4834    2.2070    0.6711 C   0  0  0  0  0  0  0  0  0  0  0  0
    2.1743    3.3585    1.3723 C   0  0  0  0  0  0  0  0  0  0  0  0
    0.9600   -1.5088    0.5950 S   0  0  0  0  0  0  0  0  0  0  0  0
   -0.1463   -1.9093   -0.8096 C   0  0  0  0  0  0  0  0  0  0  0  0
   -1.8713   -1.9859   -0.2986 S   0  0  0  0  0  0  0  0  0  0  0  0
   -2.1361    0.0829    0.1453 P   0  0  0  0  0  0  0  0  0  0  0  0
   -1.4136    1.3559   -1.1522 S   0  0  0  0  0  0  0  0  0  0  0  0
   -1.4949    0.2943    1.5721 O   0  0  0  0  0  0  0  0  0  0  0  0
   -1.8466   -0.4927    2.7389 C   0  0  0  0  0  0  0  0  0  0  0  0
   -2.8852    0.2238    3.5766 C   0  0  0  0  0  0  0  0  0  0  0  0
   -3.6924    0.2001    0.4385 O   0  0  0  0  0  0  0  0  0  0  0  0
   -4.6646    0.4390   -0.5959 C   0  0  0  0  0  0  0  0  0  0  0  0
   -4.7615   -0.7124   -1.5751 C   0  0  0  0  0  0  0  0  0  0  0  0
    6.3521    0.8828   -0.8937 H   0  0  0  0  0  0  0  0  0  0  0  0
    4.6989    1.5097   -0.8100 H   0  0  0  0  0  0  0  0  0  0  0  0
    5.4815    0.8914    0.6531 H   0  0  0  0  0  0  0  0  0  0  0  0
    5.5310   -1.4093   -0.3906 H   0  0  0  0  0  0  0  0  0  0  0  0
    4.6550   -0.7364   -1.7995 H   0  0  0  0  0  0  0  0  0  0  0  0
    1.2409    2.4533   -0.3688 H   0  0  0  0  0  0  0  0  0  0  0  0
    0.5579    1.9244    1.1824 H   0  0  0  0  0  0  0  0  0  0  0  0
    3.0787    3.6344    0.8374 H   0  0  0  0  0  0  0  0  0  0  0  0
    1.5016    4.2093    1.4012 H   0  0  0  0  0  0  0  0  0  0  0  0
    2.4365    3.0685    2.3856 H   0  0  0  0  0  0  0  0  0  0  0  0
    0.1049   -2.8974   -1.1864 H   0  0  0  0  0  0  0  0  0  0  0  0
   -0.0181   -1.1457   -1.5827 H   0  0  0  0  0  0  0  0  0  0  0  0
   -2.2068   -1.4711    2.4101 H   0  0  0  0  0  0  0  0  0  0  0  0
   -0.9050   -0.6136    3.2782 H   0  0  0  0  0  0  0  0  0  0  0  0
   -2.5270    1.2116    3.8531 H   0  0  0  0  0  0  0  0  0  0  0  0
   -3.8113    0.3294    3.0183 H   0  0  0  0  0  0  0  0  0  0  0  0
   -3.0722   -0.3545    4.4760 H   0  0  0  0  0  0  0  0  0  0  0  0
   -5.5967    0.5798   -0.0469 H   0  0  0  0  0  0  0  0  0  0  0  0
   -4.3944    1.3640   -1.1142 H   0  0  0  0  0  0  0  0  0  0  0  0
   -3.8498   -0.7774   -2.1668 H   0  0  0  0  0  0  0  0  0  0  0  0
   -4.9026   -1.6507   -1.0446 H   0  0  0  0  0  0  0  0  0  0  0  0
   -5.6007   -0.5442   -2.2425 H   0  0  0  0  0  0  0  0  0  0  0  0
  1  2  1  0  0  0  0
  2  3  1  0  0  0  0
  3  4  2  0  0  0  0
  4  5  2  0  0  0  0
  4  6  2  0  0  0  0
  6  7  1  0  0  0  0
  7  8  1  0  0  0  0
  4  9  1  0  0  0  0
  9 10  1  0  0  0  0
 10 11  1  0  0  0  0
 11 12  1  0  0  0  0
 12 13  2  0  0  0  0
 12 14  2  0  0  0  0
 14 15  1  0  0  0  0
 15 16  1  0  0  0  0
 12 17  2  0  0  0  0
 17 18  1  0  0  0  0
 18 19  1  0  0  0  0
  1 20  1  0  0  0  0
  1 21  1  0  0  0  0
  1 22  1  0  0  0  0
  2 23  1  0  0  0  0
  2 24  1  0  0  0  0
  7 25  1  0  0  0  0
  7 26  1  0  0  0  0
  8 27  1  0  0  0  0
  8 28  1  0  0  0  0
  8 29  1  0  0  0  0
 10 30  1  0  0  0  0
 10 31  1  0  0  0  0
 15 32  1  0  0  0  0
 15 33  1  0  0  0  0
 16 34  1  0  0  0  0
 16 35  1  0  0  0  0
 16 36  1  0  0  0  0
 18 37  1  0  0  0  0
 18 38  1  0  0  0  0
 19 39  1  0  0  0  0
 19 40  1  0  0  0  0
 19 41  1  0  0  0  0
M  END
