 xtb: 6.7.1 (edcfbbe)
          04092505213D

 41 40  0     0  0            999 V2000
    4.5197    1.3516   -1.8604 C   0  0  0  0  0  0  0  0  0  0  0  0
    4.6813   -0.0289   -1.2579 C   0  0  0  0  0  0  0  0  0  0  0  0
    3.4161   -0.6897   -1.0747 O   0  0  0  0  0  0  0  0  0  0  0  0
    2.3416   -0.1922   -0.0130 P   0  0  0  0  0  0  0  0  0  0  0  0
    3.1117    0.4288    1.6827 S   0  0  0  0  0  0  0  0  0  0  0  0
    1.3761   -1.4390    0.0784 O   0  0  0  0  0  0  0  0  0  0  0  0
    1.6379   -2.5799    0.9275 C   0  0  0  0  0  0  0  0  0  0  0  0
    0.3627   -2.9361    1.6643 C   0  0  0  0  0  0  0  0  0  0  0  0
    1.1067    1.1450   -1.0654 S   0  0  0  0  0  0  0  0  0  0  0  0
    0.2977    1.8617    0.3939 C   0  0  0  0  0  0  0  0  0  0  0  0
   -0.7571    0.7050    1.3066 S   0  0  0  0  0  0  0  0  0  0  0  0
   -2.0930    0.1178   -0.2797 P   0  0  0  0  0  0  0  0  0  0  0  0
   -1.5009   -1.2532   -1.5417 S   0  0  0  0  0  0  0  0  0  0  0  0
   -2.4663    1.4520   -1.0245 O   0  0  0  0  0  0  0  0  0  0  0  0
   -3.1679    2.5594   -0.4003 C   0  0  0  0  0  0  0  0  0  0  0  0
   -4.6513    2.4795   -0.6968 C   0  0  0  0  0  0  0  0  0  0  0  0
   -3.4067   -0.2074    0.5554 O   0  0  0  0  0  0  0  0  0  0  0  0
   -3.4685   -1.2355    1.5628 C   0  0  0  0  0  0  0  0  0  0  0  0
   -3.8083   -2.5856    0.9630 C   0  0  0  0  0  0  0  0  0  0  0  0
    3.9274    1.2993   -2.7708 H   0  0  0  0  0  0  0  0  0  0  0  0
    4.0169    2.0096   -1.1525 H   0  0  0  0  0  0  0  0  0  0  0  0
    5.4985    1.7610   -2.0887 H   0  0  0  0  0  0  0  0  0  0  0  0
    5.1812    0.0314   -0.2858 H   0  0  0  0  0  0  0  0  0  0  0  0
    5.2320   -0.6984   -1.9199 H   0  0  0  0  0  0  0  0  0  0  0  0
    1.9618   -3.3899    0.2712 H   0  0  0  0  0  0  0  0  0  0  0  0
    2.4432   -2.3262    1.6253 H   0  0  0  0  0  0  0  0  0  0  0  0
    0.5160   -3.8520    2.2251 H   0  0  0  0  0  0  0  0  0  0  0  0
    0.0897   -2.1354    2.3479 H   0  0  0  0  0  0  0  0  0  0  0  0
   -0.4413   -3.0807    0.9466 H   0  0  0  0  0  0  0  0  0  0  0  0
   -0.2861    2.7056    0.0363 H   0  0  0  0  0  0  0  0  0  0  0  0
    1.0584    2.1828    1.1070 H   0  0  0  0  0  0  0  0  0  0  0  0
   -2.9805    2.5433    0.6764 H   0  0  0  0  0  0  0  0  0  0  0  0
   -2.7248    3.4514   -0.8477 H   0  0  0  0  0  0  0  0  0  0  0  0
   -4.8145    2.4552   -1.7707 H   0  0  0  0  0  0  0  0  0  0  0  0
   -5.0745    1.5797   -0.2588 H   0  0  0  0  0  0  0  0  0  0  0  0
   -5.1449    3.3509   -0.2780 H   0  0  0  0  0  0  0  0  0  0  0  0
   -2.5145   -1.2680    2.0968 H   0  0  0  0  0  0  0  0  0  0  0  0
   -4.2522   -0.8972    2.2436 H   0  0  0  0  0  0  0  0  0  0  0  0
   -3.0419   -2.8883    0.2530 H   0  0  0  0  0  0  0  0  0  0  0  0
   -3.8723   -3.3238    1.7558 H   0  0  0  0  0  0  0  0  0  0  0  0
   -4.7591   -2.5343    0.4397 H   0  0  0  0  0  0  0  0  0  0  0  0
  1  2  1  0  0  0  0
  2  3  1  0  0  0  0
  3  4  2  0  0  0  0
  4  5  2  0  0  0  0
  4  6  2  0  0  0  0
  6  7  1  0  0  0  0
  7  8  1  0  0  0  0
  4  9  1  0  0  0  0
  9 10  1  0  0  0  0
 10 11  1  0  0  0  0
 11 12  1  0  0  0  0
 12 13  2  0  0  0  0
 12 14  2  0  0  0  0
 14 15  1  0  0  0  0
 15 16  1  0  0  0  0
 12 17  2  0  0  0  0
 17 18  1  0  0  0  0
 18 19  1  0  0  0  0
  1 20  1  0  0  0  0
  1 21  1  0  0  0  0
  1 22  1  0  0  0  0
  2 23  1  0  0  0  0
  2 24  1  0  0  0  0
  7 25  1  0  0  0  0
  7 26  1  0  0  0  0
  8 27  1  0  0  0  0
  8 28  1  0  0  0  0
  8 29  1  0  0  0  0
 10 30  1  0  0  0  0
 10 31  1  0  0  0  0
 15 32  1  0  0  0  0
 15 33  1  0  0  0  0
 16 34  1  0  0  0  0
 16 35  1  0  0  0  0
 16 36  1  0  0  0  0
 18 37  1  0  0  0  0
 18 38  1  0  0  0  0
 19 39  1  0  0  0  0
 19 40  1  0  0  0  0
 19 41  1  0  0  0  0
M  END
