 xtb: 6.7.1 (edcfbbe)
          04092505203D

 41 40  0     0  0            999 V2000
    3.8318    0.2651   -2.7773 C   0  0  0  0  0  0  0  0  0  0  0  0
    4.2251    0.9964   -1.5090 C   0  0  0  0  0  0  0  0  0  0  0  0
    3.9191    0.2341   -0.3295 O   0  0  0  0  0  0  0  0  0  0  0  0
    2.4334   -0.0249    0.1419 P   0  0  0  0  0  0  0  0  0  0  0  0
    1.2179    1.4940   -0.1617 S   0  0  0  0  0  0  0  0  0  0  0  0
    2.8225   -0.3875    1.6325 O   0  0  0  0  0  0  0  0  0  0  0  0
    1.9839   -1.0790    2.5742 C   0  0  0  0  0  0  0  0  0  0  0  0
    1.0315   -0.1320    3.2780 C   0  0  0  0  0  0  0  0  0  0  0  0
    1.8673   -1.8715   -0.7511 S   0  0  0  0  0  0  0  0  0  0  0  0
    0.1290   -1.5428   -1.1169 C   0  0  0  0  0  0  0  0  0  0  0  0
   -0.9201   -1.5304    0.3854 S   0  0  0  0  0  0  0  0  0  0  0  0
   -2.0901    0.1855    0.0071 P   0  0  0  0  0  0  0  0  0  0  0  0
   -2.0199    0.9701   -1.7916 S   0  0  0  0  0  0  0  0  0  0  0  0
   -1.6599    1.0846    1.2384 O   0  0  0  0  0  0  0  0  0  0  0  0
   -1.8459    2.5120    1.2546 C   0  0  0  0  0  0  0  0  0  0  0  0
   -3.3098    2.8967    1.2397 C   0  0  0  0  0  0  0  0  0  0  0  0
   -3.5518   -0.2447    0.4710 O   0  0  0  0  0  0  0  0  0  0  0  0
   -4.5099   -0.8308   -0.4246 C   0  0  0  0  0  0  0  0  0  0  0  0
   -4.0819   -2.2007   -0.9112 C   0  0  0  0  0  0  0  0  0  0  0  0
    2.7466    0.2019   -2.8505 H   0  0  0  0  0  0  0  0  0  0  0  0
    4.2083    0.8094   -3.6375 H   0  0  0  0  0  0  0  0  0  0  0  0
    4.2442   -0.7405   -2.7755 H   0  0  0  0  0  0  0  0  0  0  0  0
    3.7119    1.9619   -1.4458 H   0  0  0  0  0  0  0  0  0  0  0  0
    5.3037    1.1472   -1.4494 H   0  0  0  0  0  0  0  0  0  0  0  0
    1.4343   -1.8751    2.0603 H   0  0  0  0  0  0  0  0  0  0  0  0
    2.6916   -1.5210    3.2781 H   0  0  0  0  0  0  0  0  0  0  0  0
    1.5857    0.6792    3.7428 H   0  0  0  0  0  0  0  0  0  0  0  0
    0.3215    0.2929    2.5707 H   0  0  0  0  0  0  0  0  0  0  0  0
    0.4813   -0.6775    4.0379 H   0  0  0  0  0  0  0  0  0  0  0  0
   -0.1919   -2.3590   -1.7588 H   0  0  0  0  0  0  0  0  0  0  0  0
    0.0203   -0.5773   -1.6177 H   0  0  0  0  0  0  0  0  0  0  0  0
   -1.3512    2.8284    2.1742 H   0  0  0  0  0  0  0  0  0  0  0  0
   -1.3158    2.9360    0.3947 H   0  0  0  0  0  0  0  0  0  0  0  0
   -3.8354    2.3980    2.0499 H   0  0  0  0  0  0  0  0  0  0  0  0
   -3.3990    3.9724    1.3546 H   0  0  0  0  0  0  0  0  0  0  0  0
   -3.7607    2.6038    0.2920 H   0  0  0  0  0  0  0  0  0  0  0  0
   -5.4245   -0.8807    0.1676 H   0  0  0  0  0  0  0  0  0  0  0  0
   -4.6498   -0.1516   -1.2719 H   0  0  0  0  0  0  0  0  0  0  0  0
   -3.8289   -2.8401   -0.0692 H   0  0  0  0  0  0  0  0  0  0  0  0
   -4.8925   -2.6499   -1.4760 H   0  0  0  0  0  0  0  0  0  0  0  0
   -3.2112   -2.1070   -1.5593 H   0  0  0  0  0  0  0  0  0  0  0  0
  1  2  1  0  0  0  0
  2  3  1  0  0  0  0
  3  4  2  0  0  0  0
  4  5  2  0  0  0  0
  4  6  2  0  0  0  0
  6  7  1  0  0  0  0
  7  8  1  0  0  0  0
  4  9  1  0  0  0  0
  9 10  1  0  0  0  0
 10 11  1  0  0  0  0
 11 12  1  0  0  0  0
 12 13  2  0  0  0  0
 12 14  2  0  0  0  0
 14 15  1  0  0  0  0
 15 16  1  0  0  0  0
 12 17  2  0  0  0  0
 17 18  1  0  0  0  0
 18 19  1  0  0  0  0
  1 20  1  0  0  0  0
  1 21  1  0  0  0  0
  1 22  1  0  0  0  0
  2 23  1  0  0  0  0
  2 24  1  0  0  0  0
  7 25  1  0  0  0  0
  7 26  1  0  0  0  0
  8 27  1  0  0  0  0
  8 28  1  0  0  0  0
  8 29  1  0  0  0  0
 10 30  1  0  0  0  0
 10 31  1  0  0  0  0
 15 32  1  0  0  0  0
 15 33  1  0  0  0  0
 16 34  1  0  0  0  0
 16 35  1  0  0  0  0
 16 36  1  0  0  0  0
 18 37  1  0  0  0  0
 18 38  1  0  0  0  0
 19 39  1  0  0  0  0
 19 40  1  0  0  0  0
 19 41  1  0  0  0  0
M  END
