 xtb: 6.7.1 (edcfbbe)
          04092507313D

 38 37  0     0  0            999 V2000
    2.1508   -3.0171   -2.9569 C   0  0  0  0  0  0  0  0  0  0  0  0
    3.0517   -3.1423   -1.7384 C   0  0  0  0  0  0  0  0  0  0  0  0
    2.9448   -1.9660   -0.9121 O   0  0  0  0  0  0  0  0  0  0  0  0
    2.0246   -1.9411    0.0282 C   0  0  0  0  0  0  0  0  0  0  0  0
    1.2949   -2.8663    0.3091 O   0  0  0  0  0  0  0  0  0  0  0  0
    1.9578   -0.5838    0.7016 C   0  0  0  0  0  0  0  0  0  0  0  0
    1.3303    0.4184   -0.2696 C   0  0  0  0  0  0  0  0  0  0  0  0
    2.0188    0.5995   -1.1021 H   0  0  0  0  0  0  0  0  0  0  0  0
    1.0587    1.7540    0.4047 C   0  0  0  0  0  0  0  0  0  0  0  0
    1.8226    2.2385    1.2036 O   0  0  0  0  0  0  0  0  0  0  0  0
   -0.0596    2.3122   -0.0178 O   0  0  0  0  0  0  0  0  0  0  0  0
   -0.4125    3.6075    0.5085 C   0  0  0  0  0  0  0  0  0  0  0  0
    0.2253    4.7134   -0.3141 C   0  0  0  0  0  0  0  0  0  0  0  0
   -0.1603   -0.2487   -1.0824 S   0  0  0  0  0  0  0  0  0  0  0  0
   -1.6205    0.0197    0.4397 P   0  0  0  0  0  0  0  0  0  0  0  0
   -1.0653    0.3628    2.2883 S   0  0  0  0  0  0  0  0  0  0  0  0
   -2.6346    1.1088   -0.0881 O   0  0  0  0  0  0  0  0  0  0  0  0
   -3.2444    1.0272   -1.3929 C   0  0  0  0  0  0  0  0  0  0  0  0
   -2.5006   -1.3084    0.2651 O   0  0  0  0  0  0  0  0  0  0  0  0
   -2.0564   -2.5666    0.7835 C   0  0  0  0  0  0  0  0  0  0  0  0
    2.2613   -3.9003   -3.5770 H   0  0  0  0  0  0  0  0  0  0  0  0
    1.1121   -2.9271   -2.6467 H   0  0  0  0  0  0  0  0  0  0  0  0
    2.4193   -2.1368   -3.5338 H   0  0  0  0  0  0  0  0  0  0  0  0
    4.1034   -3.1870   -2.0214 H   0  0  0  0  0  0  0  0  0  0  0  0
    2.7799   -4.0155   -1.1391 H   0  0  0  0  0  0  0  0  0  0  0  0
    2.9574   -0.2383    0.9643 H   0  0  0  0  0  0  0  0  0  0  0  0
    1.3535   -0.6668    1.6069 H   0  0  0  0  0  0  0  0  0  0  0  0
   -1.5013    3.6340    0.4534 H   0  0  0  0  0  0  0  0  0  0  0  0
   -0.0902    3.6510    1.5529 H   0  0  0  0  0  0  0  0  0  0  0  0
   -0.1165    5.6732    0.0586 H   0  0  0  0  0  0  0  0  0  0  0  0
    1.3082    4.6664   -0.2272 H   0  0  0  0  0  0  0  0  0  0  0  0
   -0.0549    4.6129   -1.3590 H   0  0  0  0  0  0  0  0  0  0  0  0
   -2.4720    0.9662   -2.1596 H   0  0  0  0  0  0  0  0  0  0  0  0
   -3.8194    1.9437   -1.4947 H   0  0  0  0  0  0  0  0  0  0  0  0
   -3.8928    0.1549   -1.4444 H   0  0  0  0  0  0  0  0  0  0  0  0
   -1.0889   -2.8436    0.3619 H   0  0  0  0  0  0  0  0  0  0  0  0
   -2.8189   -3.2856    0.4972 H   0  0  0  0  0  0  0  0  0  0  0  0
   -1.9694   -2.5103    1.8693 H   0  0  0  0  0  0  0  0  0  0  0  0
  1  2  1  0  0  0  0
  2  3  1  0  0  0  0
  3  4  1  0  0  0  0
  4  5  2  0  0  0  0
  4  6  1  0  0  0  0
  6  7  1  0  0  0  0
  7  8  1  0  0  0  0
  7  9  1  0  0  0  0
  9 10  2  0  0  0  0
  9 11  1  0  0  0  0
 11 12  1  0  0  0  0
 12 13  1  0  0  0  0
  7 14  1  0  0  0  0
 14 15  1  0  0  0  0
 15 16  2  0  0  0  0
 15 17  2  0  0  0  0
 17 18  1  0  0  0  0
 15 19  1  0  0  0  0
 19 20  1  0  0  0  0
  1 21  1  0  0  0  0
  1 22  1  0  0  0  0
  1 23  1  0  0  0  0
  2 24  1  0  0  0  0
  2 25  1  0  0  0  0
  6 26  1  0  0  0  0
  6 27  1  0  0  0  0
 12 28  1  0  0  0  0
 12 29  1  0  0  0  0
 13 30  1  0  0  0  0
 13 31  1  0  0  0  0
 13 32  1  0  0  0  0
 18 33  1  0  0  0  0
 18 34  1  0  0  0  0
 18 35  1  0  0  0  0
 20 36  1  0  0  0  0
 20 37  1  0  0  0  0
 20 38  1  0  0  0  0
M  END
