 xtb: 6.7.1 (edcfbbe)
          04092505203D

 41 40  0     0  0            999 V2000
    1.5491   -0.0936   -3.3367 C   0  0  0  0  0  0  0  0  0  0  0  0
    2.2759    0.1373   -2.0297 C   0  0  0  0  0  0  0  0  0  0  0  0
    1.5306   -0.5394   -0.9924 O   0  0  0  0  0  0  0  0  0  0  0  0
    1.9424   -0.4169    0.5270 P   0  0  0  0  0  0  0  0  0  0  0  0
    2.4545    1.3473    1.2249 S   0  0  0  0  0  0  0  0  0  0  0  0
    3.1237   -1.4830    0.5888 O   0  0  0  0  0  0  0  0  0  0  0  0
    3.9589   -1.6385    1.7535 C   0  0  0  0  0  0  0  0  0  0  0  0
    5.2961   -2.1937    1.3057 C   0  0  0  0  0  0  0  0  0  0  0  0
    0.3670   -1.4014    1.4979 S   0  0  0  0  0  0  0  0  0  0  0  0
   -0.5697    0.0284    2.1463 C   0  0  0  0  0  0  0  0  0  0  0  0
   -2.2591    0.0944    1.5260 S   0  0  0  0  0  0  0  0  0  0  0  0
   -1.8118    0.6177   -0.4914 P   0  0  0  0  0  0  0  0  0  0  0  0
   -0.4732    2.0233   -0.7449 S   0  0  0  0  0  0  0  0  0  0  0  0
   -3.2564    0.8505   -1.1088 O   0  0  0  0  0  0  0  0  0  0  0  0
   -4.2872    1.6700   -0.5249 C   0  0  0  0  0  0  0  0  0  0  0  0
   -3.8230    3.0813   -0.2341 C   0  0  0  0  0  0  0  0  0  0  0  0
   -1.3485   -0.6977   -1.2222 O   0  0  0  0  0  0  0  0  0  0  0  0
   -2.1212   -1.9239   -1.2420 C   0  0  0  0  0  0  0  0  0  0  0  0
   -2.8593   -2.0634   -2.5572 C   0  0  0  0  0  0  0  0  0  0  0  0
    1.4914   -1.1575   -3.5465 H   0  0  0  0  0  0  0  0  0  0  0  0
    0.5412    0.3091   -3.2683 H   0  0  0  0  0  0  0  0  0  0  0  0
    2.0835    0.4094   -4.1358 H   0  0  0  0  0  0  0  0  0  0  0  0
    2.3211    1.2029   -1.7788 H   0  0  0  0  0  0  0  0  0  0  0  0
    3.2888   -0.2728   -2.0491 H   0  0  0  0  0  0  0  0  0  0  0  0
    4.0711   -0.6609    2.2347 H   0  0  0  0  0  0  0  0  0  0  0  0
    3.4521   -2.3222    2.4391 H   0  0  0  0  0  0  0  0  0  0  0  0
    5.1501   -3.1345    0.7829 H   0  0  0  0  0  0  0  0  0  0  0  0
    5.7895   -1.4918    0.6390 H   0  0  0  0  0  0  0  0  0  0  0  0
    5.9213   -2.3581    2.1771 H   0  0  0  0  0  0  0  0  0  0  0  0
   -0.0342    0.9445    1.8800 H   0  0  0  0  0  0  0  0  0  0  0  0
   -0.6463   -0.0823    3.2248 H   0  0  0  0  0  0  0  0  0  0  0  0
   -5.0794    1.6588   -1.2756 H   0  0  0  0  0  0  0  0  0  0  0  0
   -4.6324    1.1806    0.3898 H   0  0  0  0  0  0  0  0  0  0  0  0
   -3.4198    3.5420   -1.1330 H   0  0  0  0  0  0  0  0  0  0  0  0
   -4.6602    3.6693    0.1277 H   0  0  0  0  0  0  0  0  0  0  0  0
   -3.0418    3.0723    0.5248 H   0  0  0  0  0  0  0  0  0  0  0  0
   -1.3818   -2.7163   -1.1086 H   0  0  0  0  0  0  0  0  0  0  0  0
   -2.8138   -1.9238   -0.3954 H   0  0  0  0  0  0  0  0  0  0  0  0
   -2.1557   -2.0428   -3.3848 H   0  0  0  0  0  0  0  0  0  0  0  0
   -3.3944   -3.0078   -2.5644 H   0  0  0  0  0  0  0  0  0  0  0  0
   -3.5665   -1.2472   -2.6794 H   0  0  0  0  0  0  0  0  0  0  0  0
  1  2  1  0  0  0  0
  2  3  1  0  0  0  0
  3  4  2  0  0  0  0
  4  5  2  0  0  0  0
  4  6  2  0  0  0  0
  6  7  1  0  0  0  0
  7  8  1  0  0  0  0
  4  9  1  0  0  0  0
  9 10  1  0  0  0  0
 10 11  1  0  0  0  0
 11 12  1  0  0  0  0
 12 13  2  0  0  0  0
 12 14  2  0  0  0  0
 14 15  1  0  0  0  0
 15 16  1  0  0  0  0
 12 17  2  0  0  0  0
 17 18  1  0  0  0  0
 18 19  1  0  0  0  0
  1 20  1  0  0  0  0
  1 21  1  0  0  0  0
  1 22  1  0  0  0  0
  2 23  1  0  0  0  0
  2 24  1  0  0  0  0
  7 25  1  0  0  0  0
  7 26  1  0  0  0  0
  8 27  1  0  0  0  0
  8 28  1  0  0  0  0
  8 29  1  0  0  0  0
 10 30  1  0  0  0  0
 10 31  1  0  0  0  0
 15 32  1  0  0  0  0
 15 33  1  0  0  0  0
 16 34  1  0  0  0  0
 16 35  1  0  0  0  0
 16 36  1  0  0  0  0
 18 37  1  0  0  0  0
 18 38  1  0  0  0  0
 19 39  1  0  0  0  0
 19 40  1  0  0  0  0
 19 41  1  0  0  0  0
M  END
