 xtb: 6.7.1 (edcfbbe)
          04032519543D

 28 30  0     0  0            999 V2000
   -3.9807   -0.6950    0.0010 C   0  0  0  0  0  0  0  0  0  0  0  0
   -3.9807    0.6950    0.0017 C   0  0  0  0  0  0  0  0  0  0  0  0
   -2.7849    1.3826    0.0012 C   0  0  0  0  0  0  0  0  0  0  0  0
   -1.5685    0.6986   -0.0000 C   0  0  0  0  0  0  0  0  0  0  0  0
   -1.5685   -0.6986   -0.0006 C   0  0  0  0  0  0  0  0  0  0  0  0
   -2.7849   -1.3826   -0.0002 C   0  0  0  0  0  0  0  0  0  0  0  0
   -0.3139   -1.4613   -0.0011 C   0  0  0  0  0  0  0  0  0  0  0  0
   -0.3655   -2.7101   -0.0021 O   0  0  0  0  0  0  0  0  0  0  0  0
    0.9230   -0.7159   -0.0002 C   0  0  0  0  0  0  0  0  0  0  0  0
    2.1537   -1.4160    0.0005 C   0  0  0  0  0  0  0  0  0  0  0  0
    3.3681   -0.6769    0.0015 C   0  0  0  0  0  0  0  0  0  0  0  0
    3.3681    0.6768    0.0012 C   0  0  0  0  0  0  0  0  0  0  0  0
    2.1537    1.4160    0.0001 C   0  0  0  0  0  0  0  0  0  0  0  0
    0.9230    0.7159   -0.0003 C   0  0  0  0  0  0  0  0  0  0  0  0
   -0.3139    1.4614   -0.0007 C   0  0  0  0  0  0  0  0  0  0  0  0
   -0.3655    2.7102   -0.0015 O   0  0  0  0  0  0  0  0  0  0  0  0
    2.2272    2.7524   -0.0006 N   0  0  0  0  0  0  0  0  0  0  0  0
    2.2271   -2.7524    0.0010 N   0  0  0  0  0  0  0  0  0  0  0  0
   -4.9143   -1.2361    0.0012 H   0  0  0  0  0  0  0  0  0  0  0  0
   -4.9143    1.2360    0.0028 H   0  0  0  0  0  0  0  0  0  0  0  0
   -2.7583    2.4626    0.0018 H   0  0  0  0  0  0  0  0  0  0  0  0
   -2.7583   -2.4626   -0.0008 H   0  0  0  0  0  0  0  0  0  0  0  0
    4.2974   -1.2257    0.0023 H   0  0  0  0  0  0  0  0  0  0  0  0
    4.2974    1.2257    0.0016 H   0  0  0  0  0  0  0  0  0  0  0  0
    3.1235    3.2062   -0.0001 H   0  0  0  0  0  0  0  0  0  0  0  0
    1.3591    3.2752   -0.0012 H   0  0  0  0  0  0  0  0  0  0  0  0
    1.3590   -3.2751   -0.0007 H   0  0  0  0  0  0  0  0  0  0  0  0
    3.1235   -3.2062    0.0000 H   0  0  0  0  0  0  0  0  0  0  0  0
  1  2  4  0  0  0  0
  2  3  4  0  0  0  0
  3  4  4  0  0  0  0
  4  5  4  0  0  0  0
  1  6  4  0  0  0  0
  5  6  4  0  0  0  0
  5  7  1  0  0  0  0
  7  8  2  0  0  0  0
  7  9  1  0  0  0  0
  9 10  4  0  0  0  0
 10 11  4  0  0  0  0
 11 12  2  0  0  0  0
 12 13  4  0  0  0  0
  9 14  4  0  0  0  0
 13 14  4  0  0  0  0
  4 15  1  0  0  0  0
 14 15  1  0  0  0  0
 15 16  2  0  0  0  0
 13 17  4  0  0  0  0
 10 18  4  0  0  0  0
  1 19  1  0  0  0  0
  2 20  1  0  0  0  0
  3 21  1  0  0  0  0
  6 22  1  0  0  0  0
 11 23  1  0  0  0  0
 12 24  1  0  0  0  0
 17 25  1  0  0  0  0
 17 26  1  0  0  0  0
 18 27  1  0  0  0  0
 18 28  1  0  0  0  0
M  END
