 xtb: 6.7.1 (edcfbbe)
          04092505213D

 41 40  0     0  0            999 V2000
    2.5181   -0.4365   -3.0368 C   0  0  0  0  0  0  0  0  0  0  0  0
    3.1052    0.5456   -2.0418 C   0  0  0  0  0  0  0  0  0  0  0  0
    2.1558    0.8492   -0.9890 O   0  0  0  0  0  0  0  0  0  0  0  0
    2.1196    0.1878    0.4377 P   0  0  0  0  0  0  0  0  0  0  0  0
    0.7964    1.1365    1.5281 S   0  0  0  0  0  0  0  0  0  0  0  0
    3.6347    0.3075    0.8961 O   0  0  0  0  0  0  0  0  0  0  0  0
    4.2526   -0.4759    1.9356 C   0  0  0  0  0  0  0  0  0  0  0  0
    3.4913   -0.4192    3.2429 C   0  0  0  0  0  0  0  0  0  0  0  0
    1.8986   -1.9202    0.2070 S   0  0  0  0  0  0  0  0  0  0  0  0
    0.2219   -1.9809   -0.4614 C   0  0  0  0  0  0  0  0  0  0  0  0
   -1.0755   -1.6211    0.7768 S   0  0  0  0  0  0  0  0  0  0  0  0
   -2.0566   -0.0559   -0.2295 P   0  0  0  0  0  0  0  0  0  0  0  0
   -1.1144    0.8370   -1.7043 S   0  0  0  0  0  0  0  0  0  0  0  0
   -2.6702    0.9138    0.8665 O   0  0  0  0  0  0  0  0  0  0  0  0
   -2.2548    2.2614    1.1394 C   0  0  0  0  0  0  0  0  0  0  0  0
   -3.4743    3.1609    1.1097 C   0  0  0  0  0  0  0  0  0  0  0  0
   -3.3348   -0.9084   -0.6346 O   0  0  0  0  0  0  0  0  0  0  0  0
   -4.4694   -0.3354   -1.3195 C   0  0  0  0  0  0  0  0  0  0  0  0
   -4.3414   -0.5093   -2.8204 C   0  0  0  0  0  0  0  0  0  0  0  0
    2.4334   -1.4290   -2.6010 H   0  0  0  0  0  0  0  0  0  0  0  0
    1.5327   -0.0965   -3.3490 H   0  0  0  0  0  0  0  0  0  0  0  0
    3.1664   -0.4879   -3.9057 H   0  0  0  0  0  0  0  0  0  0  0  0
    3.2916    1.5135   -2.5096 H   0  0  0  0  0  0  0  0  0  0  0  0
    4.0254    0.1668   -1.5938 H   0  0  0  0  0  0  0  0  0  0  0  0
    4.3347   -1.5066    1.5802 H   0  0  0  0  0  0  0  0  0  0  0  0
    5.2455   -0.0332    2.0322 H   0  0  0  0  0  0  0  0  0  0  0  0
    2.5061   -0.8693    3.1241 H   0  0  0  0  0  0  0  0  0  0  0  0
    4.0394   -0.9648    4.0041 H   0  0  0  0  0  0  0  0  0  0  0  0
    3.3595    0.6125    3.5613 H   0  0  0  0  0  0  0  0  0  0  0  0
    0.0817   -3.0011   -0.8082 H   0  0  0  0  0  0  0  0  0  0  0  0
    0.1249   -1.2618   -1.2793 H   0  0  0  0  0  0  0  0  0  0  0  0
   -1.7759    2.2557    2.1210 H   0  0  0  0  0  0  0  0  0  0  0  0
   -1.5145    2.5681    0.3929 H   0  0  0  0  0  0  0  0  0  0  0  0
   -3.9005    3.1854    0.1093 H   0  0  0  0  0  0  0  0  0  0  0  0
   -4.2217    2.7935    1.8071 H   0  0  0  0  0  0  0  0  0  0  0  0
   -3.1779    4.1650    1.3941 H   0  0  0  0  0  0  0  0  0  0  0  0
   -5.3271   -0.8846   -0.9269 H   0  0  0  0  0  0  0  0  0  0  0  0
   -4.5588    0.7201   -1.0480 H   0  0  0  0  0  0  0  0  0  0  0  0
   -4.2170   -1.5611   -3.0622 H   0  0  0  0  0  0  0  0  0  0  0  0
   -5.2380   -0.1322   -3.3020 H   0  0  0  0  0  0  0  0  0  0  0  0
   -3.4791    0.0396   -3.1928 H   0  0  0  0  0  0  0  0  0  0  0  0
  1  2  1  0  0  0  0
  2  3  1  0  0  0  0
  3  4  2  0  0  0  0
  4  5  2  0  0  0  0
  4  6  2  0  0  0  0
  6  7  1  0  0  0  0
  7  8  1  0  0  0  0
  4  9  1  0  0  0  0
  9 10  1  0  0  0  0
 10 11  1  0  0  0  0
 11 12  1  0  0  0  0
 12 13  2  0  0  0  0
 12 14  2  0  0  0  0
 14 15  1  0  0  0  0
 15 16  1  0  0  0  0
 12 17  2  0  0  0  0
 17 18  1  0  0  0  0
 18 19  1  0  0  0  0
  1 20  1  0  0  0  0
  1 21  1  0  0  0  0
  1 22  1  0  0  0  0
  2 23  1  0  0  0  0
  2 24  1  0  0  0  0
  7 25  1  0  0  0  0
  7 26  1  0  0  0  0
  8 27  1  0  0  0  0
  8 28  1  0  0  0  0
  8 29  1  0  0  0  0
 10 30  1  0  0  0  0
 10 31  1  0  0  0  0
 15 32  1  0  0  0  0
 15 33  1  0  0  0  0
 16 34  1  0  0  0  0
 16 35  1  0  0  0  0
 16 36  1  0  0  0  0
 18 37  1  0  0  0  0
 18 38  1  0  0  0  0
 19 39  1  0  0  0  0
 19 40  1  0  0  0  0
 19 41  1  0  0  0  0
M  END
