 xtb: 6.7.1 (edcfbbe)
          04092505203D

 41 40  0     0  0            999 V2000
    2.7758    0.3522   -3.4834 C   0  0  0  0  0  0  0  0  0  0  0  0
    3.0008   -0.2767   -2.1254 C   0  0  0  0  0  0  0  0  0  0  0  0
    2.4271    0.6093   -1.1299 O   0  0  0  0  0  0  0  0  0  0  0  0
    2.1601    0.1694    0.3531 P   0  0  0  0  0  0  0  0  0  0  0  0
    1.3272    1.6159    1.3724 S   0  0  0  0  0  0  0  0  0  0  0  0
    3.6379   -0.2561    0.7852 O   0  0  0  0  0  0  0  0  0  0  0  0
    3.9839   -1.0641    1.9238 C   0  0  0  0  0  0  0  0  0  0  0  0
    3.5441   -0.4497    3.2367 C   0  0  0  0  0  0  0  0  0  0  0  0
    1.1256   -1.6965    0.3360 S   0  0  0  0  0  0  0  0  0  0  0  0
   -0.2397   -1.3093    1.4762 C   0  0  0  0  0  0  0  0  0  0  0  0
   -1.8856   -1.4754    0.7413 S   0  0  0  0  0  0  0  0  0  0  0  0
   -1.9315    0.2673   -0.4801 P   0  0  0  0  0  0  0  0  0  0  0  0
   -0.6407    0.4225   -1.9388 S   0  0  0  0  0  0  0  0  0  0  0  0
   -1.8180    1.4758    0.5225 O   0  0  0  0  0  0  0  0  0  0  0  0
   -2.6436    1.6712    1.6965 C   0  0  0  0  0  0  0  0  0  0  0  0
   -3.8412    2.5415    1.3776 C   0  0  0  0  0  0  0  0  0  0  0  0
   -3.4531    0.3076   -0.9424 O   0  0  0  0  0  0  0  0  0  0  0  0
   -3.9170   -0.3617   -2.1285 C   0  0  0  0  0  0  0  0  0  0  0  0
   -3.8098   -1.8683   -2.0155 C   0  0  0  0  0  0  0  0  0  0  0  0
    3.1915   -0.2938   -4.2496 H   0  0  0  0  0  0  0  0  0  0  0  0
    1.7091    0.4782   -3.6546 H   0  0  0  0  0  0  0  0  0  0  0  0
    3.2534    1.3266   -3.5279 H   0  0  0  0  0  0  0  0  0  0  0  0
    4.0627   -0.3914   -1.8986 H   0  0  0  0  0  0  0  0  0  0  0  0
    2.5016   -1.2477   -2.0531 H   0  0  0  0  0  0  0  0  0  0  0  0
    3.5393   -2.0545    1.7884 H   0  0  0  0  0  0  0  0  0  0  0  0
    5.0713   -1.1357    1.8631 H   0  0  0  0  0  0  0  0  0  0  0  0
    3.9381    0.5592    3.3325 H   0  0  0  0  0  0  0  0  0  0  0  0
    2.4578   -0.3961    3.2849 H   0  0  0  0  0  0  0  0  0  0  0  0
    3.9080   -1.0586    4.0578 H   0  0  0  0  0  0  0  0  0  0  0  0
   -0.0962   -0.2875    1.8429 H   0  0  0  0  0  0  0  0  0  0  0  0
   -0.2108   -2.0350    2.2849 H   0  0  0  0  0  0  0  0  0  0  0  0
   -2.9571    0.6951    2.0775 H   0  0  0  0  0  0  0  0  0  0  0  0
   -1.9734    2.1546    2.4111 H   0  0  0  0  0  0  0  0  0  0  0  0
   -3.5120    3.4848    0.9500 H   0  0  0  0  0  0  0  0  0  0  0  0
   -4.4926    2.0408    0.6662 H   0  0  0  0  0  0  0  0  0  0  0  0
   -4.3899    2.7355    2.2939 H   0  0  0  0  0  0  0  0  0  0  0  0
   -4.9539   -0.0359   -2.2219 H   0  0  0  0  0  0  0  0  0  0  0  0
   -3.3334    0.0031   -2.9795 H   0  0  0  0  0  0  0  0  0  0  0  0
   -2.7620   -2.1651   -1.9926 H   0  0  0  0  0  0  0  0  0  0  0  0
   -4.2935   -2.2163   -1.1062 H   0  0  0  0  0  0  0  0  0  0  0  0
   -4.2850   -2.3268   -2.8767 H   0  0  0  0  0  0  0  0  0  0  0  0
  1  2  1  0  0  0  0
  2  3  1  0  0  0  0
  3  4  2  0  0  0  0
  4  5  2  0  0  0  0
  4  6  2  0  0  0  0
  6  7  1  0  0  0  0
  7  8  1  0  0  0  0
  4  9  1  0  0  0  0
  9 10  1  0  0  0  0
 10 11  1  0  0  0  0
 11 12  1  0  0  0  0
 12 13  2  0  0  0  0
 12 14  2  0  0  0  0
 14 15  1  0  0  0  0
 15 16  1  0  0  0  0
 12 17  2  0  0  0  0
 17 18  1  0  0  0  0
 18 19  1  0  0  0  0
  1 20  1  0  0  0  0
  1 21  1  0  0  0  0
  1 22  1  0  0  0  0
  2 23  1  0  0  0  0
  2 24  1  0  0  0  0
  7 25  1  0  0  0  0
  7 26  1  0  0  0  0
  8 27  1  0  0  0  0
  8 28  1  0  0  0  0
  8 29  1  0  0  0  0
 10 30  1  0  0  0  0
 10 31  1  0  0  0  0
 15 32  1  0  0  0  0
 15 33  1  0  0  0  0
 16 34  1  0  0  0  0
 16 35  1  0  0  0  0
 16 36  1  0  0  0  0
 18 37  1  0  0  0  0
 18 38  1  0  0  0  0
 19 39  1  0  0  0  0
 19 40  1  0  0  0  0
 19 41  1  0  0  0  0
M  END
