 xtb: 6.7.1 (edcfbbe)
          04092505203D

 41 40  0     0  0            999 V2000
    4.0602   -1.5101   -2.5420 C   0  0  0  0  0  0  0  0  0  0  0  0
    4.4784   -1.6120   -1.0894 C   0  0  0  0  0  0  0  0  0  0  0  0
    3.3472   -1.6255   -0.2019 O   0  0  0  0  0  0  0  0  0  0  0  0
    2.4045   -0.3612    0.0006 P   0  0  0  0  0  0  0  0  0  0  0  0
    3.3486    1.3624    0.0565 S   0  0  0  0  0  0  0  0  0  0  0  0
    1.6183   -0.7625    1.3129 O   0  0  0  0  0  0  0  0  0  0  0  0
    2.0793   -0.4392    2.6458 C   0  0  0  0  0  0  0  0  0  0  0  0
    0.8916    0.0146    3.4702 C   0  0  0  0  0  0  0  0  0  0  0  0
    0.8642   -0.5772   -1.4223 S   0  0  0  0  0  0  0  0  0  0  0  0
    0.1836    1.0921   -1.2087 C   0  0  0  0  0  0  0  0  0  0  0  0
   -0.7686    1.2844    0.3108 S   0  0  0  0  0  0  0  0  0  0  0  0
   -2.6521    0.5489   -0.3922 P   0  0  0  0  0  0  0  0  0  0  0  0
   -2.8568    0.5147   -2.3395 S   0  0  0  0  0  0  0  0  0  0  0  0
   -3.7191    1.4699    0.3001 O   0  0  0  0  0  0  0  0  0  0  0  0
   -3.6361    2.0359    1.6326 C   0  0  0  0  0  0  0  0  0  0  0  0
   -3.3927    0.9916    2.6996 C   0  0  0  0  0  0  0  0  0  0  0  0
   -2.9224   -0.8542    0.3107 O   0  0  0  0  0  0  0  0  0  0  0  0
   -2.3555   -2.0963   -0.1401 C   0  0  0  0  0  0  0  0  0  0  0  0
   -1.3338   -2.5999    0.8611 C   0  0  0  0  0  0  0  0  0  0  0  0
    4.9333   -1.6200   -3.1771 H   0  0  0  0  0  0  0  0  0  0  0  0
    3.3373   -2.2856   -2.7832 H   0  0  0  0  0  0  0  0  0  0  0  0
    3.6067   -0.5379   -2.7324 H   0  0  0  0  0  0  0  0  0  0  0  0
    5.1227   -0.7706   -0.8147 H   0  0  0  0  0  0  0  0  0  0  0  0
    4.9871   -2.5540   -0.8806 H   0  0  0  0  0  0  0  0  0  0  0  0
    2.5332   -1.3440    3.0549 H   0  0  0  0  0  0  0  0  0  0  0  0
    2.8364    0.3489    2.5757 H   0  0  0  0  0  0  0  0  0  0  0  0
    0.4551    0.9091    3.0323 H   0  0  0  0  0  0  0  0  0  0  0  0
    0.1391   -0.7680    3.5017 H   0  0  0  0  0  0  0  0  0  0  0  0
    1.2238    0.2343    4.4795 H   0  0  0  0  0  0  0  0  0  0  0  0
   -0.4661    1.2777   -2.0656 H   0  0  0  0  0  0  0  0  0  0  0  0
    1.0045    1.8081   -1.1635 H   0  0  0  0  0  0  0  0  0  0  0  0
   -2.8414    2.7862    1.6317 H   0  0  0  0  0  0  0  0  0  0  0  0
   -4.6050    2.5222    1.7543 H   0  0  0  0  0  0  0  0  0  0  0  0
   -2.4117    0.5407    2.5639 H   0  0  0  0  0  0  0  0  0  0  0  0
   -3.4307    1.4661    3.6753 H   0  0  0  0  0  0  0  0  0  0  0  0
   -4.1502    0.2143    2.6452 H   0  0  0  0  0  0  0  0  0  0  0  0
   -3.1987   -2.7857   -0.2207 H   0  0  0  0  0  0  0  0  0  0  0  0
   -1.9129   -1.9580   -1.1325 H   0  0  0  0  0  0  0  0  0  0  0  0
   -1.7963   -2.7096    1.8379 H   0  0  0  0  0  0  0  0  0  0  0  0
   -0.9587   -3.5631    0.5304 H   0  0  0  0  0  0  0  0  0  0  0  0
   -0.4983   -1.9088    0.9406 H   0  0  0  0  0  0  0  0  0  0  0  0
  1  2  1  0  0  0  0
  2  3  1  0  0  0  0
  3  4  2  0  0  0  0
  4  5  2  0  0  0  0
  4  6  2  0  0  0  0
  6  7  1  0  0  0  0
  7  8  1  0  0  0  0
  4  9  1  0  0  0  0
  9 10  1  0  0  0  0
 10 11  1  0  0  0  0
 11 12  1  0  0  0  0
 12 13  2  0  0  0  0
 12 14  2  0  0  0  0
 14 15  1  0  0  0  0
 15 16  1  0  0  0  0
 12 17  2  0  0  0  0
 17 18  1  0  0  0  0
 18 19  1  0  0  0  0
  1 20  1  0  0  0  0
  1 21  1  0  0  0  0
  1 22  1  0  0  0  0
  2 23  1  0  0  0  0
  2 24  1  0  0  0  0
  7 25  1  0  0  0  0
  7 26  1  0  0  0  0
  8 27  1  0  0  0  0
  8 28  1  0  0  0  0
  8 29  1  0  0  0  0
 10 30  1  0  0  0  0
 10 31  1  0  0  0  0
 15 32  1  0  0  0  0
 15 33  1  0  0  0  0
 16 34  1  0  0  0  0
 16 35  1  0  0  0  0
 16 36  1  0  0  0  0
 18 37  1  0  0  0  0
 18 38  1  0  0  0  0
 19 39  1  0  0  0  0
 19 40  1  0  0  0  0
 19 41  1  0  0  0  0
M  END
