 xtb: 6.7.1 (edcfbbe)
          04092505213D

 41 40  0     0  0            999 V2000
    5.6892    0.4736   -1.2439 C   0  0  0  0  0  0  0  0  0  0  0  0
    4.2211    0.1558   -1.4421 C   0  0  0  0  0  0  0  0  0  0  0  0
    3.6004    0.1094   -0.1407 O   0  0  0  0  0  0  0  0  0  0  0  0
    2.0208    0.1193    0.0171 P   0  0  0  0  0  0  0  0  0  0  0  0
    1.0945    1.6089   -0.8512 S   0  0  0  0  0  0  0  0  0  0  0  0
    1.8239    0.1231    1.5777 O   0  0  0  0  0  0  0  0  0  0  0  0
    2.4324   -0.8527    2.4629 C   0  0  0  0  0  0  0  0  0  0  0  0
    3.7077   -0.3026    3.0663 C   0  0  0  0  0  0  0  0  0  0  0  0
    1.4930   -1.8303   -0.6650 S   0  0  0  0  0  0  0  0  0  0  0  0
   -0.2663   -1.5456   -0.9215 C   0  0  0  0  0  0  0  0  0  0  0  0
   -1.1136   -1.0885    0.6348 S   0  0  0  0  0  0  0  0  0  0  0  0
   -2.5852    0.2542   -0.1155 P   0  0  0  0  0  0  0  0  0  0  0  0
   -2.3839    0.8156   -1.9871 S   0  0  0  0  0  0  0  0  0  0  0  0
   -2.7075    1.3920    0.9756 O   0  0  0  0  0  0  0  0  0  0  0  0
   -1.8148    2.5119    1.1079 C   0  0  0  0  0  0  0  0  0  0  0  0
   -0.8778    2.3157    2.2835 C   0  0  0  0  0  0  0  0  0  0  0  0
   -3.9707   -0.4202    0.2482 O   0  0  0  0  0  0  0  0  0  0  0  0
   -4.7007   -1.2445   -0.6759 C   0  0  0  0  0  0  0  0  0  0  0  0
   -3.9777   -2.5412   -0.9821 C   0  0  0  0  0  0  0  0  0  0  0  0
    5.7999    1.4341   -0.7484 H   0  0  0  0  0  0  0  0  0  0  0  0
    6.1574   -0.2948   -0.6358 H   0  0  0  0  0  0  0  0  0  0  0  0
    6.1781    0.5125   -2.2118 H   0  0  0  0  0  0  0  0  0  0  0  0
    4.0827   -0.8171   -1.9214 H   0  0  0  0  0  0  0  0  0  0  0  0
    3.7201    0.9242   -2.0400 H   0  0  0  0  0  0  0  0  0  0  0  0
    1.6731   -1.0376    3.2250 H   0  0  0  0  0  0  0  0  0  0  0  0
    2.6213   -1.7712    1.9006 H   0  0  0  0  0  0  0  0  0  0  0  0
    4.4416   -0.1148    2.2874 H   0  0  0  0  0  0  0  0  0  0  0  0
    3.5028    0.6288    3.5868 H   0  0  0  0  0  0  0  0  0  0  0  0
    4.1070   -1.0265    3.7697 H   0  0  0  0  0  0  0  0  0  0  0  0
   -0.6661   -2.4873   -1.2898 H   0  0  0  0  0  0  0  0  0  0  0  0
   -0.4146   -0.7371   -1.6434 H   0  0  0  0  0  0  0  0  0  0  0  0
   -1.2581    2.6535    0.1754 H   0  0  0  0  0  0  0  0  0  0  0  0
   -2.4692    3.3716    1.2671 H   0  0  0  0  0  0  0  0  0  0  0  0
   -0.3115    3.2285    2.4389 H   0  0  0  0  0  0  0  0  0  0  0  0
   -1.4498    2.0838    3.1773 H   0  0  0  0  0  0  0  0  0  0  0  0
   -0.1810    1.5038    2.0865 H   0  0  0  0  0  0  0  0  0  0  0  0
   -5.6503   -1.4216   -0.1691 H   0  0  0  0  0  0  0  0  0  0  0  0
   -4.8694   -0.6731   -1.5942 H   0  0  0  0  0  0  0  0  0  0  0  0
   -3.0825   -2.3314   -1.5664 H   0  0  0  0  0  0  0  0  0  0  0  0
   -3.6957   -3.0432   -0.0597 H   0  0  0  0  0  0  0  0  0  0  0  0
   -4.6296   -3.1882   -1.5604 H   0  0  0  0  0  0  0  0  0  0  0  0
  1  2  1  0  0  0  0
  2  3  1  0  0  0  0
  3  4  2  0  0  0  0
  4  5  2  0  0  0  0
  4  6  2  0  0  0  0
  6  7  1  0  0  0  0
  7  8  1  0  0  0  0
  4  9  1  0  0  0  0
  9 10  1  0  0  0  0
 10 11  1  0  0  0  0
 11 12  1  0  0  0  0
 12 13  2  0  0  0  0
 12 14  2  0  0  0  0
 14 15  1  0  0  0  0
 15 16  1  0  0  0  0
 12 17  2  0  0  0  0
 17 18  1  0  0  0  0
 18 19  1  0  0  0  0
  1 20  1  0  0  0  0
  1 21  1  0  0  0  0
  1 22  1  0  0  0  0
  2 23  1  0  0  0  0
  2 24  1  0  0  0  0
  7 25  1  0  0  0  0
  7 26  1  0  0  0  0
  8 27  1  0  0  0  0
  8 28  1  0  0  0  0
  8 29  1  0  0  0  0
 10 30  1  0  0  0  0
 10 31  1  0  0  0  0
 15 32  1  0  0  0  0
 15 33  1  0  0  0  0
 16 34  1  0  0  0  0
 16 35  1  0  0  0  0
 16 36  1  0  0  0  0
 18 37  1  0  0  0  0
 18 38  1  0  0  0  0
 19 39  1  0  0  0  0
 19 40  1  0  0  0  0
 19 41  1  0  0  0  0
M  END
