 xtb: 6.7.1 (edcfbbe)
          04092505213D

 41 40  0     0  0            999 V2000
    2.8030   -2.7897    1.2888 C   0  0  0  0  0  0  0  0  0  0  0  0
    1.5703   -2.2605    0.5847 C   0  0  0  0  0  0  0  0  0  0  0  0
    1.4660   -0.8351    0.7450 O   0  0  0  0  0  0  0  0  0  0  0  0
    2.2712    0.2074   -0.1664 P   0  0  0  0  0  0  0  0  0  0  0  0
    3.1691   -0.5195   -1.7372 S   0  0  0  0  0  0  0  0  0  0  0  0
    3.2814    0.9270    0.8127 O   0  0  0  0  0  0  0  0  0  0  0  0
    2.8704    1.5440    2.0605 C   0  0  0  0  0  0  0  0  0  0  0  0
    4.1011    2.1640    2.6878 C   0  0  0  0  0  0  0  0  0  0  0  0
    0.7781    1.6896   -0.4871 S   0  0  0  0  0  0  0  0  0  0  0  0
    0.1191    0.9772   -2.0149 C   0  0  0  0  0  0  0  0  0  0  0  0
   -0.5359   -0.6991   -1.7918 S   0  0  0  0  0  0  0  0  0  0  0  0
   -2.1488   -0.1861   -0.5114 P   0  0  0  0  0  0  0  0  0  0  0  0
   -2.9922    1.5613   -0.7941 S   0  0  0  0  0  0  0  0  0  0  0  0
   -1.6558   -0.4667    0.9748 O   0  0  0  0  0  0  0  0  0  0  0  0
   -1.3488    0.5376    1.9576 C   0  0  0  0  0  0  0  0  0  0  0  0
   -2.0747    0.2096    3.2477 C   0  0  0  0  0  0  0  0  0  0  0  0
   -3.0091   -1.4731   -0.8324 O   0  0  0  0  0  0  0  0  0  0  0  0
   -4.4419   -1.5094   -0.6598 C   0  0  0  0  0  0  0  0  0  0  0  0
   -4.8450   -1.3785    0.7940 C   0  0  0  0  0  0  0  0  0  0  0  0
    2.7741   -2.5403    2.3461 H   0  0  0  0  0  0  0  0  0  0  0  0
    2.8483   -3.8679    1.1738 H   0  0  0  0  0  0  0  0  0  0  0  0
    3.6940   -2.3477    0.8438 H   0  0  0  0  0  0  0  0  0  0  0  0
    0.6476   -2.6511    1.0173 H   0  0  0  0  0  0  0  0  0  0  0  0
    1.6011   -2.4958   -0.4839 H   0  0  0  0  0  0  0  0  0  0  0  0
    2.1109    2.2982    1.8354 H   0  0  0  0  0  0  0  0  0  0  0  0
    2.4382    0.7712    2.7004 H   0  0  0  0  0  0  0  0  0  0  0  0
    4.8503    1.4002    2.8749 H   0  0  0  0  0  0  0  0  0  0  0  0
    4.5228    2.9096    2.0202 H   0  0  0  0  0  0  0  0  0  0  0  0
    3.8238    2.6356    3.6250 H   0  0  0  0  0  0  0  0  0  0  0  0
    0.9144    0.9014   -2.7555 H   0  0  0  0  0  0  0  0  0  0  0  0
   -0.6752    1.6447   -2.3480 H   0  0  0  0  0  0  0  0  0  0  0  0
   -0.2655    0.5216    2.0998 H   0  0  0  0  0  0  0  0  0  0  0  0
   -1.6459    1.5185    1.5710 H   0  0  0  0  0  0  0  0  0  0  0  0
   -1.8243   -0.7966    3.5709 H   0  0  0  0  0  0  0  0  0  0  0  0
   -1.7714    0.9188    4.0110 H   0  0  0  0  0  0  0  0  0  0  0  0
   -3.1499    0.2781    3.1074 H   0  0  0  0  0  0  0  0  0  0  0  0
   -4.8816   -0.7038   -1.2556 H   0  0  0  0  0  0  0  0  0  0  0  0
   -4.7273   -2.4766   -1.0758 H   0  0  0  0  0  0  0  0  0  0  0  0
   -5.9166   -1.5266    0.8851 H   0  0  0  0  0  0  0  0  0  0  0  0
   -4.3239   -2.1173    1.3971 H   0  0  0  0  0  0  0  0  0  0  0  0
   -4.5946   -0.3816    1.1545 H   0  0  0  0  0  0  0  0  0  0  0  0
  1  2  1  0  0  0  0
  2  3  1  0  0  0  0
  3  4  1  0  0  0  0
  4  5  2  0  0  0  0
  4  6  2  0  0  0  0
  6  7  1  0  0  0  0
  7  8  1  0  0  0  0
  4  9  1  0  0  0  0
  9 10  1  0  0  0  0
 10 11  1  0  0  0  0
 11 12  1  0  0  0  0
 12 13  2  0  0  0  0
 12 14  2  0  0  0  0
 14 15  1  0  0  0  0
 15 16  1  0  0  0  0
 12 17  2  0  0  0  0
 17 18  1  0  0  0  0
 18 19  1  0  0  0  0
  1 20  1  0  0  0  0
  1 21  1  0  0  0  0
  1 22  1  0  0  0  0
  2 23  1  0  0  0  0
  2 24  1  0  0  0  0
  7 25  1  0  0  0  0
  7 26  1  0  0  0  0
  8 27  1  0  0  0  0
  8 28  1  0  0  0  0
  8 29  1  0  0  0  0
 10 30  1  0  0  0  0
 10 31  1  0  0  0  0
 15 32  1  0  0  0  0
 15 33  1  0  0  0  0
 16 34  1  0  0  0  0
 16 35  1  0  0  0  0
 16 36  1  0  0  0  0
 18 37  1  0  0  0  0
 18 38  1  0  0  0  0
 19 39  1  0  0  0  0
 19 40  1  0  0  0  0
 19 41  1  0  0  0  0
M  END
