 xtb: 6.7.1 (edcfbbe)
          04092505213D

 41 40  0     0  0            999 V2000
    3.2507   -0.2234    3.4226 C   0  0  0  0  0  0  0  0  0  0  0  0
    2.0069   -0.1158    2.5652 C   0  0  0  0  0  0  0  0  0  0  0  0
    2.0805   -1.0402    1.4488 O   0  0  0  0  0  0  0  0  0  0  0  0
    2.5167   -0.6138    0.0013 P   0  0  0  0  0  0  0  0  0  0  0  0
    2.7302   -2.1544   -1.1843 S   0  0  0  0  0  0  0  0  0  0  0  0
    3.8128    0.2651    0.2541 O   0  0  0  0  0  0  0  0  0  0  0  0
    4.5705    0.8068   -0.8480 C   0  0  0  0  0  0  0  0  0  0  0  0
    5.9069    1.2713   -0.3059 C   0  0  0  0  0  0  0  0  0  0  0  0
    1.0959    0.8411   -0.6741 S   0  0  0  0  0  0  0  0  0  0  0  0
   -0.1122   -0.3484   -1.2969 C   0  0  0  0  0  0  0  0  0  0  0  0
   -1.2588   -0.9206   -0.0238 S   0  0  0  0  0  0  0  0  0  0  0  0
   -2.7840    0.5207   -0.4501 P   0  0  0  0  0  0  0  0  0  0  0  0
   -3.2215    0.6520   -2.3555 S   0  0  0  0  0  0  0  0  0  0  0  0
   -2.2769    1.9071    0.1015 O   0  0  0  0  0  0  0  0  0  0  0  0
   -2.3551    2.3650    1.4746 C   0  0  0  0  0  0  0  0  0  0  0  0
   -1.5063    1.5292    2.4080 C   0  0  0  0  0  0  0  0  0  0  0  0
   -3.9762    0.1573    0.5306 O   0  0  0  0  0  0  0  0  0  0  0  0
   -5.0016   -0.7918    0.1835 C   0  0  0  0  0  0  0  0  0  0  0  0
   -4.4592   -2.1991    0.0457 C   0  0  0  0  0  0  0  0  0  0  0  0
    3.3828   -1.2481    3.7584 H   0  0  0  0  0  0  0  0  0  0  0  0
    4.1269    0.0742    2.8528 H   0  0  0  0  0  0  0  0  0  0  0  0
    3.1445    0.4266    4.2854 H   0  0  0  0  0  0  0  0  0  0  0  0
    1.8838    0.8987    2.1770 H   0  0  0  0  0  0  0  0  0  0  0  0
    1.1142   -0.4208    3.1140 H   0  0  0  0  0  0  0  0  0  0  0  0
    4.6920    0.0249   -1.6047 H   0  0  0  0  0  0  0  0  0  0  0  0
    4.0019    1.6354   -1.2787 H   0  0  0  0  0  0  0  0  0  0  0  0
    6.4919    1.6926   -1.1168 H   0  0  0  0  0  0  0  0  0  0  0  0
    5.7558    2.0278    0.4585 H   0  0  0  0  0  0  0  0  0  0  0  0
    6.4463    0.4332    0.1261 H   0  0  0  0  0  0  0  0  0  0  0  0
    0.4260   -1.2187   -1.6784 H   0  0  0  0  0  0  0  0  0  0  0  0
   -0.6812    0.1361   -2.0923 H   0  0  0  0  0  0  0  0  0  0  0  0
   -1.9922    3.3920    1.4117 H   0  0  0  0  0  0  0  0  0  0  0  0
   -3.4030    2.3550    1.7791 H   0  0  0  0  0  0  0  0  0  0  0  0
   -1.8994    0.5166    2.4714 H   0  0  0  0  0  0  0  0  0  0  0  0
   -0.4835    1.4900    2.0422 H   0  0  0  0  0  0  0  0  0  0  0  0
   -1.5162    1.9787    3.3959 H   0  0  0  0  0  0  0  0  0  0  0  0
   -5.7149   -0.7131    1.0052 H   0  0  0  0  0  0  0  0  0  0  0  0
   -5.4697   -0.4678   -0.7509 H   0  0  0  0  0  0  0  0  0  0  0  0
   -3.8974   -2.4798    0.9330 H   0  0  0  0  0  0  0  0  0  0  0  0
   -5.2849   -2.8897   -0.0921 H   0  0  0  0  0  0  0  0  0  0  0  0
   -3.8008   -2.2621   -0.8197 H   0  0  0  0  0  0  0  0  0  0  0  0
  1  2  1  0  0  0  0
  2  3  1  0  0  0  0
  3  4  2  0  0  0  0
  4  5  2  0  0  0  0
  4  6  2  0  0  0  0
  6  7  1  0  0  0  0
  7  8  1  0  0  0  0
  4  9  1  0  0  0  0
  9 10  1  0  0  0  0
 10 11  1  0  0  0  0
 11 12  1  0  0  0  0
 12 13  2  0  0  0  0
 12 14  2  0  0  0  0
 14 15  1  0  0  0  0
 15 16  1  0  0  0  0
 12 17  2  0  0  0  0
 17 18  1  0  0  0  0
 18 19  1  0  0  0  0
  1 20  1  0  0  0  0
  1 21  1  0  0  0  0
  1 22  1  0  0  0  0
  2 23  1  0  0  0  0
  2 24  1  0  0  0  0
  7 25  1  0  0  0  0
  7 26  1  0  0  0  0
  8 27  1  0  0  0  0
  8 28  1  0  0  0  0
  8 29  1  0  0  0  0
 10 30  1  0  0  0  0
 10 31  1  0  0  0  0
 15 32  1  0  0  0  0
 15 33  1  0  0  0  0
 16 34  1  0  0  0  0
 16 35  1  0  0  0  0
 16 36  1  0  0  0  0
 18 37  1  0  0  0  0
 18 38  1  0  0  0  0
 19 39  1  0  0  0  0
 19 40  1  0  0  0  0
 19 41  1  0  0  0  0
M  END
