 xtb: 6.7.1 (edcfbbe)
          04092505203D

 41 40  0     0  0            999 V2000
    4.8267   -0.7966   -1.3037 C   0  0  0  0  0  0  0  0  0  0  0  0
    4.4506   -0.5283    0.1382 C   0  0  0  0  0  0  0  0  0  0  0  0
    3.4752    0.5219    0.2790 O   0  0  0  0  0  0  0  0  0  0  0  0
    2.0365    0.5550   -0.4005 P   0  0  0  0  0  0  0  0  0  0  0  0
    1.9403    0.9500   -2.3132 S   0  0  0  0  0  0  0  0  0  0  0  0
    1.3357    1.6799    0.4497 O   0  0  0  0  0  0  0  0  0  0  0  0
    1.3234    1.6901    1.8977 C   0  0  0  0  0  0  0  0  0  0  0  0
    2.3217    2.6991    2.4260 C   0  0  0  0  0  0  0  0  0  0  0  0
    1.2420   -1.3267    0.2062 S   0  0  0  0  0  0  0  0  0  0  0  0
    0.1459   -1.6985   -1.1949 C   0  0  0  0  0  0  0  0  0  0  0  0
   -1.5517   -2.0334   -0.6795 S   0  0  0  0  0  0  0  0  0  0  0  0
   -2.0424   -0.0845    0.0189 P   0  0  0  0  0  0  0  0  0  0  0  0
   -1.4468    1.3952   -1.1177 S   0  0  0  0  0  0  0  0  0  0  0  0
   -1.5191    0.0215    1.4999 O   0  0  0  0  0  0  0  0  0  0  0  0
   -1.9475   -0.9160    2.5317 C   0  0  0  0  0  0  0  0  0  0  0  0
   -0.7658   -1.2390    3.4216 C   0  0  0  0  0  0  0  0  0  0  0  0
   -3.6115   -0.1945    0.2352 O   0  0  0  0  0  0  0  0  0  0  0  0
   -4.5227   -0.2455   -0.8824 C   0  0  0  0  0  0  0  0  0  0  0  0
   -5.9121    0.0574   -0.3600 C   0  0  0  0  0  0  0  0  0  0  0  0
    5.6254   -1.5305   -1.3362 H   0  0  0  0  0  0  0  0  0  0  0  0
    3.9687   -1.1778   -1.8548 H   0  0  0  0  0  0  0  0  0  0  0  0
    5.1582    0.1198   -1.7859 H   0  0  0  0  0  0  0  0  0  0  0  0
    5.3048   -0.1592    0.7086 H   0  0  0  0  0  0  0  0  0  0  0  0
    4.0515   -1.4309    0.6090 H   0  0  0  0  0  0  0  0  0  0  0  0
    0.2981    1.9587    2.1622 H   0  0  0  0  0  0  0  0  0  0  0  0
    1.5446    0.6827    2.2615 H   0  0  0  0  0  0  0  0  0  0  0  0
    3.3290    2.4198    2.1284 H   0  0  0  0  0  0  0  0  0  0  0  0
    2.0998    3.6844    2.0251 H   0  0  0  0  0  0  0  0  0  0  0  0
    2.2589    2.7281    3.5092 H   0  0  0  0  0  0  0  0  0  0  0  0
    0.4997   -2.6082   -1.6734 H   0  0  0  0  0  0  0  0  0  0  0  0
    0.1715   -0.8514   -1.8871 H   0  0  0  0  0  0  0  0  0  0  0  0
   -2.7491   -0.4239    3.0841 H   0  0  0  0  0  0  0  0  0  0  0  0
   -2.3378   -1.8155    2.0482 H   0  0  0  0  0  0  0  0  0  0  0  0
   -0.3790   -0.3327    3.8782 H   0  0  0  0  0  0  0  0  0  0  0  0
   -1.0921   -1.9210    4.2002 H   0  0  0  0  0  0  0  0  0  0  0  0
    0.0243   -1.7114    2.8430 H   0  0  0  0  0  0  0  0  0  0  0  0
   -4.2012    0.4897   -1.6273 H   0  0  0  0  0  0  0  0  0  0  0  0
   -4.4679   -1.2460   -1.3195 H   0  0  0  0  0  0  0  0  0  0  0  0
   -6.6192    0.0078   -1.1814 H   0  0  0  0  0  0  0  0  0  0  0  0
   -6.1889   -0.6685    0.3988 H   0  0  0  0  0  0  0  0  0  0  0  0
   -5.9382    1.0521    0.0759 H   0  0  0  0  0  0  0  0  0  0  0  0
  1  2  1  0  0  0  0
  2  3  1  0  0  0  0
  3  4  2  0  0  0  0
  4  5  2  0  0  0  0
  4  6  2  0  0  0  0
  6  7  1  0  0  0  0
  7  8  1  0  0  0  0
  4  9  1  0  0  0  0
  9 10  1  0  0  0  0
 10 11  1  0  0  0  0
 11 12  1  0  0  0  0
 12 13  2  0  0  0  0
 12 14  2  0  0  0  0
 14 15  1  0  0  0  0
 15 16  1  0  0  0  0
 12 17  2  0  0  0  0
 17 18  1  0  0  0  0
 18 19  1  0  0  0  0
  1 20  1  0  0  0  0
  1 21  1  0  0  0  0
  1 22  1  0  0  0  0
  2 23  1  0  0  0  0
  2 24  1  0  0  0  0
  7 25  1  0  0  0  0
  7 26  1  0  0  0  0
  8 27  1  0  0  0  0
  8 28  1  0  0  0  0
  8 29  1  0  0  0  0
 10 30  1  0  0  0  0
 10 31  1  0  0  0  0
 15 32  1  0  0  0  0
 15 33  1  0  0  0  0
 16 34  1  0  0  0  0
 16 35  1  0  0  0  0
 16 36  1  0  0  0  0
 18 37  1  0  0  0  0
 18 38  1  0  0  0  0
 19 39  1  0  0  0  0
 19 40  1  0  0  0  0
 19 41  1  0  0  0  0
M  END
