 xtb: 6.7.1 (edcfbbe)
          04032517433D

 12 12  0     0  0            999 V2000
    1.1977   -1.2092   -0.0002 C   0  0  0  0  0  0  0  0  0  0  0  0
    1.8765   -0.0000   -0.0002 C   0  0  0  0  0  0  0  0  0  0  0  0
    1.1977    1.2092    0.0001 C   0  0  0  0  0  0  0  0  0  0  0  0
   -0.1880    1.2006    0.0003 C   0  0  0  0  0  0  0  0  0  0  0  0
   -0.8959    0.0000    0.0001 C   0  0  0  0  0  0  0  0  0  0  0  0
   -0.1880   -1.2006   -0.0001 C   0  0  0  0  0  0  0  0  0  0  0  0
   -1.0467   -2.6925    0.0000 Cl  0  0  0  0  0  0  0  0  0  0  0  0
   -2.6197    0.0000    0.0000 Cl  0  0  0  0  0  0  0  0  0  0  0  0
   -1.0467    2.6925   -0.0001 Cl  0  0  0  0  0  0  0  0  0  0  0  0
    3.5983   -0.0000    0.0000 Cl  0  0  0  0  0  0  0  0  0  0  0  0
    1.7312   -2.1449    0.0001 H   0  0  0  0  0  0  0  0  0  0  0  0
    1.7312    2.1449   -0.0004 H   0  0  0  0  0  0  0  0  0  0  0  0
  1  2  4  0  0  0  0
  2  3  4  0  0  0  0
  3  4  4  0  0  0  0
  4  5  4  0  0  0  0
  1  6  4  0  0  0  0
  5  6  4  0  0  0  0
  6  7  1  0  0  0  0
  5  8  1  0  0  0  0
  4  9  1  0  0  0  0
  2 10  1  0  0  0  0
  1 11  1  0  0  0  0
  3 12  1  0  0  0  0
M  END
