 xtb: 6.7.1 (edcfbbe)
          04092505213D

 41 40  0     0  0            999 V2000
    5.0796   -1.3270    0.2390 C   0  0  0  0  0  0  0  0  0  0  0  0
    4.7489   -0.4383   -0.9414 C   0  0  0  0  0  0  0  0  0  0  0  0
    3.7112    0.5249   -0.6388 O   0  0  0  0  0  0  0  0  0  0  0  0
    2.2065    0.1815   -0.2825 P   0  0  0  0  0  0  0  0  0  0  0  0
    1.0744    1.7617   -0.5385 S   0  0  0  0  0  0  0  0  0  0  0  0
    2.1624   -0.4188    1.1989 O   0  0  0  0  0  0  0  0  0  0  0  0
    1.9048    0.3960    2.3524 C   0  0  0  0  0  0  0  0  0  0  0  0
    3.1435    1.1615    2.7717 C   0  0  0  0  0  0  0  0  0  0  0  0
    1.8011   -1.5657   -1.3854 S   0  0  0  0  0  0  0  0  0  0  0  0
    0.0033   -1.4202   -1.4900 C   0  0  0  0  0  0  0  0  0  0  0  0
   -0.8132   -1.3220    0.1320 S   0  0  0  0  0  0  0  0  0  0  0  0
   -2.1703    0.2955   -0.2322 P   0  0  0  0  0  0  0  0  0  0  0  0
   -2.2056    0.9981   -2.0556 S   0  0  0  0  0  0  0  0  0  0  0  0
   -1.9069    1.3844    0.8679 O   0  0  0  0  0  0  0  0  0  0  0  0
   -1.9127    1.1041    2.2919 C   0  0  0  0  0  0  0  0  0  0  0  0
   -3.2743    1.3758    2.8972 C   0  0  0  0  0  0  0  0  0  0  0  0
   -3.5520   -0.3311    0.2523 O   0  0  0  0  0  0  0  0  0  0  0  0
   -4.2070   -1.3605   -0.5149 C   0  0  0  0  0  0  0  0  0  0  0  0
   -5.6302   -1.4839   -0.0095 C   0  0  0  0  0  0  0  0  0  0  0  0
    5.3829   -0.7250    1.0914 H   0  0  0  0  0  0  0  0  0  0  0  0
    4.2133   -1.9247    0.5139 H   0  0  0  0  0  0  0  0  0  0  0  0
    5.8936   -1.9900   -0.0371 H   0  0  0  0  0  0  0  0  0  0  0  0
    4.4249   -1.0344   -1.7985 H   0  0  0  0  0  0  0  0  0  0  0  0
    5.5956    0.1886   -1.2259 H   0  0  0  0  0  0  0  0  0  0  0  0
    1.0905    1.0884    2.1134 H   0  0  0  0  0  0  0  0  0  0  0  0
    1.5811   -0.3114    3.1172 H   0  0  0  0  0  0  0  0  0  0  0  0
    3.4511    1.8271    1.9653 H   0  0  0  0  0  0  0  0  0  0  0  0
    2.9217    1.7528    3.6545 H   0  0  0  0  0  0  0  0  0  0  0  0
    3.9546    0.4737    2.9938 H   0  0  0  0  0  0  0  0  0  0  0  0
   -0.3310   -2.3235   -1.9949 H   0  0  0  0  0  0  0  0  0  0  0  0
   -0.2683   -0.5276   -2.0615 H   0  0  0  0  0  0  0  0  0  0  0  0
   -1.6052    0.0661    2.4486 H   0  0  0  0  0  0  0  0  0  0  0  0
   -1.1589    1.7811    2.6991 H   0  0  0  0  0  0  0  0  0  0  0  0
   -4.0157    0.6992    2.4823 H   0  0  0  0  0  0  0  0  0  0  0  0
   -3.2157    1.2327    3.9717 H   0  0  0  0  0  0  0  0  0  0  0  0
   -3.5755    2.3982    2.6863 H   0  0  0  0  0  0  0  0  0  0  0  0
   -4.1788   -1.0765   -1.5721 H   0  0  0  0  0  0  0  0  0  0  0  0
   -3.6517   -2.2927   -0.3772 H   0  0  0  0  0  0  0  0  0  0  0  0
   -6.1541   -0.5409   -0.1379 H   0  0  0  0  0  0  0  0  0  0  0  0
   -6.1414   -2.2567   -0.5739 H   0  0  0  0  0  0  0  0  0  0  0  0
   -5.6305   -1.7486    1.0439 H   0  0  0  0  0  0  0  0  0  0  0  0
  1  2  1  0  0  0  0
  2  3  1  0  0  0  0
  3  4  2  0  0  0  0
  4  5  2  0  0  0  0
  4  6  1  0  0  0  0
  6  7  1  0  0  0  0
  7  8  1  0  0  0  0
  4  9  1  0  0  0  0
  9 10  1  0  0  0  0
 10 11  1  0  0  0  0
 11 12  1  0  0  0  0
 12 13  2  0  0  0  0
 12 14  2  0  0  0  0
 14 15  1  0  0  0  0
 15 16  1  0  0  0  0
 12 17  2  0  0  0  0
 17 18  1  0  0  0  0
 18 19  1  0  0  0  0
  1 20  1  0  0  0  0
  1 21  1  0  0  0  0
  1 22  1  0  0  0  0
  2 23  1  0  0  0  0
  2 24  1  0  0  0  0
  7 25  1  0  0  0  0
  7 26  1  0  0  0  0
  8 27  1  0  0  0  0
  8 28  1  0  0  0  0
  8 29  1  0  0  0  0
 10 30  1  0  0  0  0
 10 31  1  0  0  0  0
 15 32  1  0  0  0  0
 15 33  1  0  0  0  0
 16 34  1  0  0  0  0
 16 35  1  0  0  0  0
 16 36  1  0  0  0  0
 18 37  1  0  0  0  0
 18 38  1  0  0  0  0
 19 39  1  0  0  0  0
 19 40  1  0  0  0  0
 19 41  1  0  0  0  0
M  END
