 xtb: 6.7.1 (edcfbbe)
          04092505213D

 41 40  0     0  0            999 V2000
    5.5533    1.0166   -1.2357 C   0  0  0  0  0  0  0  0  0  0  0  0
    4.3129    1.3386   -0.4273 C   0  0  0  0  0  0  0  0  0  0  0  0
    3.3280    0.3188   -0.6968 O   0  0  0  0  0  0  0  0  0  0  0  0
    2.1194    0.0456    0.2940 P   0  0  0  0  0  0  0  0  0  0  0  0
    2.6155   -0.1229    2.1864 S   0  0  0  0  0  0  0  0  0  0  0  0
    1.4253   -1.2081   -0.3716 O   0  0  0  0  0  0  0  0  0  0  0  0
    1.7041   -2.5595    0.0415 C   0  0  0  0  0  0  0  0  0  0  0  0
    3.1124   -2.9743   -0.3254 C   0  0  0  0  0  0  0  0  0  0  0  0
    0.7552    1.5739   -0.1826 S   0  0  0  0  0  0  0  0  0  0  0  0
   -0.2771    1.4123    1.3031 C   0  0  0  0  0  0  0  0  0  0  0  0
   -1.0687   -0.2132    1.4585 S   0  0  0  0  0  0  0  0  0  0  0  0
   -2.1665   -0.2759   -0.3637 P   0  0  0  0  0  0  0  0  0  0  0  0
   -1.3327   -0.7803   -2.0550 S   0  0  0  0  0  0  0  0  0  0  0  0
   -2.8814    1.1515   -0.3363 O   0  0  0  0  0  0  0  0  0  0  0  0
   -2.9810    2.0416   -1.4687 C   0  0  0  0  0  0  0  0  0  0  0  0
   -2.2719    3.3487   -1.1769 C   0  0  0  0  0  0  0  0  0  0  0  0
   -3.2888   -1.3311    0.0003 O   0  0  0  0  0  0  0  0  0  0  0  0
   -4.1980   -1.1701    1.1206 C   0  0  0  0  0  0  0  0  0  0  0  0
   -5.5072   -1.8401    0.7572 C   0  0  0  0  0  0  0  0  0  0  0  0
    6.2922    1.7952   -1.0773 H   0  0  0  0  0  0  0  0  0  0  0  0
    5.9670    0.0611   -0.9259 H   0  0  0  0  0  0  0  0  0  0  0  0
    5.3029    0.9655   -2.2913 H   0  0  0  0  0  0  0  0  0  0  0  0
    3.8887    2.3042   -0.7150 H   0  0  0  0  0  0  0  0  0  0  0  0
    4.5232    1.3441    0.6477 H   0  0  0  0  0  0  0  0  0  0  0  0
    1.5431   -2.6302    1.1229 H   0  0  0  0  0  0  0  0  0  0  0  0
    0.9519   -3.1506   -0.4841 H   0  0  0  0  0  0  0  0  0  0  0  0
    3.2562   -4.0214   -0.0778 H   0  0  0  0  0  0  0  0  0  0  0  0
    3.2801   -2.8241   -1.3888 H   0  0  0  0  0  0  0  0  0  0  0  0
    3.8290   -2.3740    0.2346 H   0  0  0  0  0  0  0  0  0  0  0  0
   -1.0357    2.1889    1.2512 H   0  0  0  0  0  0  0  0  0  0  0  0
    0.3460    1.5209    2.1911 H   0  0  0  0  0  0  0  0  0  0  0  0
   -2.5538    1.5454   -2.3464 H   0  0  0  0  0  0  0  0  0  0  0  0
   -4.0501    2.1987   -1.6237 H   0  0  0  0  0  0  0  0  0  0  0  0
   -2.6626    3.7938   -0.2660 H   0  0  0  0  0  0  0  0  0  0  0  0
   -1.2007    3.1867   -1.0696 H   0  0  0  0  0  0  0  0  0  0  0  0
   -2.4413    4.0292   -2.0050 H   0  0  0  0  0  0  0  0  0  0  0  0
   -3.7333   -1.6421    1.9891 H   0  0  0  0  0  0  0  0  0  0  0  0
   -4.3340   -0.1039    1.3148 H   0  0  0  0  0  0  0  0  0  0  0  0
   -5.3359   -2.8876    0.5265 H   0  0  0  0  0  0  0  0  0  0  0  0
   -6.1912   -1.7631    1.5963 H   0  0  0  0  0  0  0  0  0  0  0  0
   -5.9472   -1.3599   -0.1124 H   0  0  0  0  0  0  0  0  0  0  0  0
  1  2  1  0  0  0  0
  2  3  1  0  0  0  0
  3  4  2  0  0  0  0
  4  5  2  0  0  0  0
  4  6  2  0  0  0  0
  6  7  1  0  0  0  0
  7  8  1  0  0  0  0
  4  9  1  0  0  0  0
  9 10  1  0  0  0  0
 10 11  1  0  0  0  0
 11 12  1  0  0  0  0
 12 13  2  0  0  0  0
 12 14  2  0  0  0  0
 14 15  1  0  0  0  0
 15 16  1  0  0  0  0
 12 17  2  0  0  0  0
 17 18  1  0  0  0  0
 18 19  1  0  0  0  0
  1 20  1  0  0  0  0
  1 21  1  0  0  0  0
  1 22  1  0  0  0  0
  2 23  1  0  0  0  0
  2 24  1  0  0  0  0
  7 25  1  0  0  0  0
  7 26  1  0  0  0  0
  8 27  1  0  0  0  0
  8 28  1  0  0  0  0
  8 29  1  0  0  0  0
 10 30  1  0  0  0  0
 10 31  1  0  0  0  0
 15 32  1  0  0  0  0
 15 33  1  0  0  0  0
 16 34  1  0  0  0  0
 16 35  1  0  0  0  0
 16 36  1  0  0  0  0
 18 37  1  0  0  0  0
 18 38  1  0  0  0  0
 19 39  1  0  0  0  0
 19 40  1  0  0  0  0
 19 41  1  0  0  0  0
M  END
