 xtb: 6.7.1 (edcfbbe)
          04092507313D

 38 37  0     0  0            999 V2000
    5.3347   -2.2046   -0.4389 C   0  0  0  0  0  0  0  0  0  0  0  0
    4.6145   -0.9758    0.0928 C   0  0  0  0  0  0  0  0  0  0  0  0
    3.1877   -1.1780    0.1124 O   0  0  0  0  0  0  0  0  0  0  0  0
    2.5113   -0.9500   -0.9936 C   0  0  0  0  0  0  0  0  0  0  0  0
    2.9936   -0.5555   -2.0316 O   0  0  0  0  0  0  0  0  0  0  0  0
    1.0320   -1.2458   -0.8118 C   0  0  0  0  0  0  0  0  0  0  0  0
    0.2166   -0.0895   -1.3891 C   0  0  0  0  0  0  0  0  0  0  0  0
    0.5871    0.1369   -2.3945 H   0  0  0  0  0  0  0  0  0  0  0  0
    0.3423    1.1495   -0.5282 C   0  0  0  0  0  0  0  0  0  0  0  0
   -0.6256    1.7496   -0.1004 O   0  0  0  0  0  0  0  0  0  0  0  0
    1.5849    1.4710   -0.3091 O   0  0  0  0  0  0  0  0  0  0  0  0
    1.8715    2.5536    0.6067 C   0  0  0  0  0  0  0  0  0  0  0  0
    2.0062    2.0148    2.0210 C   0  0  0  0  0  0  0  0  0  0  0  0
   -1.5493   -0.4828   -1.5917 S   0  0  0  0  0  0  0  0  0  0  0  0
   -2.3422   -0.0601    0.3363 P   0  0  0  0  0  0  0  0  0  0  0  0
   -1.2383   -0.3240    1.9450 S   0  0  0  0  0  0  0  0  0  0  0  0
   -3.2872    1.2105    0.2638 O   0  0  0  0  0  0  0  0  0  0  0  0
   -3.0943    2.4409    0.9631 C   0  0  0  0  0  0  0  0  0  0  0  0
   -3.5685   -1.0922    0.3008 O   0  0  0  0  0  0  0  0  0  0  0  0
   -3.3541   -2.5044    0.3623 C   0  0  0  0  0  0  0  0  0  0  0  0
    5.0653   -2.3752   -1.4786 H   0  0  0  0  0  0  0  0  0  0  0  0
    6.4064   -2.0481   -0.3741 H   0  0  0  0  0  0  0  0  0  0  0  0
    5.0642   -3.0793    0.1461 H   0  0  0  0  0  0  0  0  0  0  0  0
    4.8317   -0.1014   -0.5270 H   0  0  0  0  0  0  0  0  0  0  0  0
    4.8768   -0.7831    1.1332 H   0  0  0  0  0  0  0  0  0  0  0  0
    0.8172   -1.4020    0.2462 H   0  0  0  0  0  0  0  0  0  0  0  0
    0.7946   -2.1539   -1.3686 H   0  0  0  0  0  0  0  0  0  0  0  0
    2.8096    2.9741    0.2445 H   0  0  0  0  0  0  0  0  0  0  0  0
    1.0683    3.2914    0.5396 H   0  0  0  0  0  0  0  0  0  0  0  0
    2.2528    2.8288    2.6940 H   0  0  0  0  0  0  0  0  0  0  0  0
    1.0718    1.5583    2.3434 H   0  0  0  0  0  0  0  0  0  0  0  0
    2.7880    1.2616    2.0627 H   0  0  0  0  0  0  0  0  0  0  0  0
   -4.0833    2.7607    1.2844 H   0  0  0  0  0  0  0  0  0  0  0  0
   -2.6492    3.1705    0.2891 H   0  0  0  0  0  0  0  0  0  0  0  0
   -2.4434    2.2927    1.8263 H   0  0  0  0  0  0  0  0  0  0  0  0
   -2.6746   -2.7458    1.1823 H   0  0  0  0  0  0  0  0  0  0  0  0
   -2.9441   -2.8645   -0.5816 H   0  0  0  0  0  0  0  0  0  0  0  0
   -4.3333   -2.9405    0.5431 H   0  0  0  0  0  0  0  0  0  0  0  0
  1  2  1  0  0  0  0
  2  3  1  0  0  0  0
  3  4  1  0  0  0  0
  4  5  2  0  0  0  0
  4  6  1  0  0  0  0
  6  7  1  0  0  0  0
  7  8  1  0  0  0  0
  7  9  1  0  0  0  0
  9 10  2  0  0  0  0
  9 11  4  0  0  0  0
 11 12  1  0  0  0  0
 12 13  1  0  0  0  0
  7 14  1  0  0  0  0
 14 15  1  0  0  0  0
 15 16  2  0  0  0  0
 15 17  2  0  0  0  0
 17 18  1  0  0  0  0
 15 19  1  0  0  0  0
 19 20  1  0  0  0  0
  1 21  1  0  0  0  0
  1 22  1  0  0  0  0
  1 23  1  0  0  0  0
  2 24  1  0  0  0  0
  2 25  1  0  0  0  0
  6 26  1  0  0  0  0
  6 27  1  0  0  0  0
 12 28  1  0  0  0  0
 12 29  1  0  0  0  0
 13 30  1  0  0  0  0
 13 31  1  0  0  0  0
 13 32  1  0  0  0  0
 18 33  1  0  0  0  0
 18 34  1  0  0  0  0
 18 35  1  0  0  0  0
 20 36  1  0  0  0  0
 20 37  1  0  0  0  0
 20 38  1  0  0  0  0
M  END
