 xtb: 6.7.1 (edcfbbe)
          04032520173D

 27 27  0     0  0            999 V2000
    2.9783   -1.8590    0.3019 C   0  0  0  0  0  0  0  0  0  0  0  0
    1.6877   -1.1566    0.1091 C   0  0  0  0  0  0  0  0  0  0  0  0
    1.5150    0.1830    0.0039 C   0  0  0  0  0  0  0  0  0  0  0  0
    0.2088    0.7810   -0.1947 C   0  0  0  0  0  0  0  0  0  0  0  0
    0.0722    1.9550   -0.5087 O   0  0  0  0  0  0  0  0  0  0  0  0
   -0.8731   -0.0809    0.0014 N   0  0  0  0  0  0  0  0  0  0  0  0
   -0.7111   -1.4424   -0.1755 C   0  0  0  0  0  0  0  0  0  0  0  0
   -1.6016   -2.2223   -0.4598 O   0  0  0  0  0  0  0  0  0  0  0  0
    0.5653   -1.9204   -0.0122 N   0  0  0  0  0  0  0  0  0  0  0  0
   -2.2491    0.4893    0.1670 C   0  0  0  0  0  0  0  0  0  0  0  0
   -3.1469   -0.4878    0.9339 C   0  0  0  0  0  0  0  0  0  0  0  0
   -2.1803    1.7634    1.0175 C   0  0  0  0  0  0  0  0  0  0  0  0
   -2.8228    0.7813   -1.2183 C   0  0  0  0  0  0  0  0  0  0  0  0
    2.8370    1.3012    0.0249 Cl  0  0  0  0  0  0  0  0  0  0  0  0
    2.9190   -2.5073    1.1728 H   0  0  0  0  0  0  0  0  0  0  0  0
    3.7765   -1.1380    0.4391 H   0  0  0  0  0  0  0  0  0  0  0  0
    3.1992   -2.4754   -0.5667 H   0  0  0  0  0  0  0  0  0  0  0  0
    0.6574   -2.9292   -0.0814 H   0  0  0  0  0  0  0  0  0  0  0  0
   -2.6643   -0.8017    1.8564 H   0  0  0  0  0  0  0  0  0  0  0  0
   -4.0728    0.0212    1.1830 H   0  0  0  0  0  0  0  0  0  0  0  0
   -3.3868   -1.3682    0.3488 H   0  0  0  0  0  0  0  0  0  0  0  0
   -1.6841    2.5760    0.4981 H   0  0  0  0  0  0  0  0  0  0  0  0
   -1.6488    1.5683    1.9464 H   0  0  0  0  0  0  0  0  0  0  0  0
   -3.1917    2.0779    1.2544 H   0  0  0  0  0  0  0  0  0  0  0  0
   -3.8187    1.2022   -1.1235 H   0  0  0  0  0  0  0  0  0  0  0  0
   -2.1878    1.4930   -1.7414 H   0  0  0  0  0  0  0  0  0  0  0  0
   -2.8806   -0.1380   -1.7968 H   0  0  0  0  0  0  0  0  0  0  0  0
  1  2  1  0  0  0  0
  2  3  2  0  0  0  0
  3  4  1  0  0  0  0
  4  5  2  0  0  0  0
  4  6  1  0  0  0  0
  6  7  1  0  0  0  0
  7  8  2  0  0  0  0
  2  9  1  0  0  0  0
  7  9  1  0  0  0  0
  6 10  1  0  0  0  0
 10 11  1  0  0  0  0
 10 12  1  0  0  0  0
 10 13  1  0  0  0  0
  3 14  1  0  0  0  0
  1 15  1  0  0  0  0
  1 16  1  0  0  0  0
  1 17  1  0  0  0  0
  9 18  1  0  0  0  0
 11 19  1  0  0  0  0
 11 20  1  0  0  0  0
 11 21  1  0  0  0  0
 12 22  1  0  0  0  0
 12 23  1  0  0  0  0
 12 24  1  0  0  0  0
 13 25  1  0  0  0  0
 13 26  1  0  0  0  0
 13 27  1  0  0  0  0
M  END
