 xtb: 6.7.1 (edcfbbe)
          04092505203D

 41 40  0     0  0            999 V2000
    3.5003    0.1081   -2.9780 C   0  0  0  0  0  0  0  0  0  0  0  0
    2.3072   -0.5878   -2.3572 C   0  0  0  0  0  0  0  0  0  0  0  0
    1.7405    0.2234   -1.2930 O   0  0  0  0  0  0  0  0  0  0  0  0
    2.0346   -0.0303    0.2360 P   0  0  0  0  0  0  0  0  0  0  0  0
    1.1453    1.2839    1.3844 S   0  0  0  0  0  0  0  0  0  0  0  0
    3.6230   -0.0194    0.2848 O   0  0  0  0  0  0  0  0  0  0  0  0
    4.3657    0.1502    1.5050 C   0  0  0  0  0  0  0  0  0  0  0  0
    4.1721   -1.0047    2.4658 C   0  0  0  0  0  0  0  0  0  0  0  0
    1.5514   -2.0770    0.5632 S   0  0  0  0  0  0  0  0  0  0  0  0
   -0.2309   -1.8892    0.7880 C   0  0  0  0  0  0  0  0  0  0  0  0
   -1.0612   -1.1933   -0.6722 S   0  0  0  0  0  0  0  0  0  0  0  0
   -2.0895    0.4674    0.1860 P   0  0  0  0  0  0  0  0  0  0  0  0
   -2.2667    0.3794    2.1346 S   0  0  0  0  0  0  0  0  0  0  0  0
   -3.4739    0.4280   -0.5974 O   0  0  0  0  0  0  0  0  0  0  0  0
   -4.4427   -0.6069   -0.3334 C   0  0  0  0  0  0  0  0  0  0  0  0
   -5.7665   -0.1675   -0.9250 C   0  0  0  0  0  0  0  0  0  0  0  0
   -1.4762    1.8184   -0.3375 O   0  0  0  0  0  0  0  0  0  0  0  0
   -1.7057    2.3984   -1.6461 C   0  0  0  0  0  0  0  0  0  0  0  0
   -1.1264    1.5505   -2.7580 C   0  0  0  0  0  0  0  0  0  0  0  0
    3.8620   -0.4876   -3.8102 H   0  0  0  0  0  0  0  0  0  0  0  0
    3.2155    1.0926   -3.3386 H   0  0  0  0  0  0  0  0  0  0  0  0
    4.2940    0.2198   -2.2443 H   0  0  0  0  0  0  0  0  0  0  0  0
    2.5851   -1.5630   -1.9489 H   0  0  0  0  0  0  0  0  0  0  0  0
    1.4928   -0.7098   -3.0742 H   0  0  0  0  0  0  0  0  0  0  0  0
    5.4011    0.2250    1.1696 H   0  0  0  0  0  0  0  0  0  0  0  0
    4.0546    1.0917    1.9680 H   0  0  0  0  0  0  0  0  0  0  0  0
    4.3608   -1.9511    1.9652 H   0  0  0  0  0  0  0  0  0  0  0  0
    4.8568   -0.8940    3.3004 H   0  0  0  0  0  0  0  0  0  0  0  0
    3.1520   -1.0050    2.8474 H   0  0  0  0  0  0  0  0  0  0  0  0
   -0.4384   -1.2357    1.6407 H   0  0  0  0  0  0  0  0  0  0  0  0
   -0.6176   -2.8904    0.9605 H   0  0  0  0  0  0  0  0  0  0  0  0
   -4.0854   -1.5320   -0.7940 H   0  0  0  0  0  0  0  0  0  0  0  0
   -4.5122   -0.7486    0.7502 H   0  0  0  0  0  0  0  0  0  0  0  0
   -6.5078   -0.9390   -0.7456 H   0  0  0  0  0  0  0  0  0  0  0  0
   -6.0940    0.7583   -0.4603 H   0  0  0  0  0  0  0  0  0  0  0  0
   -5.6629   -0.0092   -1.9944 H   0  0  0  0  0  0  0  0  0  0  0  0
   -2.7804    2.5406   -1.7727 H   0  0  0  0  0  0  0  0  0  0  0  0
   -1.2053    3.3657   -1.5747 H   0  0  0  0  0  0  0  0  0  0  0  0
   -1.2399    2.0753   -3.7014 H   0  0  0  0  0  0  0  0  0  0  0  0
   -0.0711    1.3680   -2.5703 H   0  0  0  0  0  0  0  0  0  0  0  0
   -1.6459    0.5950   -2.8147 H   0  0  0  0  0  0  0  0  0  0  0  0
  1  2  1  0  0  0  0
  2  3  1  0  0  0  0
  3  4  2  0  0  0  0
  4  5  2  0  0  0  0
  4  6  2  0  0  0  0
  6  7  1  0  0  0  0
  7  8  1  0  0  0  0
  4  9  1  0  0  0  0
  9 10  1  0  0  0  0
 10 11  1  0  0  0  0
 11 12  1  0  0  0  0
 12 13  2  0  0  0  0
 12 14  2  0  0  0  0
 14 15  1  0  0  0  0
 15 16  1  0  0  0  0
 12 17  2  0  0  0  0
 17 18  1  0  0  0  0
 18 19  1  0  0  0  0
  1 20  1  0  0  0  0
  1 21  1  0  0  0  0
  1 22  1  0  0  0  0
  2 23  1  0  0  0  0
  2 24  1  0  0  0  0
  7 25  1  0  0  0  0
  7 26  1  0  0  0  0
  8 27  1  0  0  0  0
  8 28  1  0  0  0  0
  8 29  1  0  0  0  0
 10 30  1  0  0  0  0
 10 31  1  0  0  0  0
 15 32  1  0  0  0  0
 15 33  1  0  0  0  0
 16 34  1  0  0  0  0
 16 35  1  0  0  0  0
 16 36  1  0  0  0  0
 18 37  1  0  0  0  0
 18 38  1  0  0  0  0
 19 39  1  0  0  0  0
 19 40  1  0  0  0  0
 19 41  1  0  0  0  0
M  END
