 xtb: 6.7.1 (edcfbbe)
          04092505213D

 41 40  0     0  0            999 V2000
    3.4323   -0.8384   -3.0656 C   0  0  0  0  0  0  0  0  0  0  0  0
    2.1649   -0.4978   -2.3111 C   0  0  0  0  0  0  0  0  0  0  0  0
    2.4579    0.3626   -1.1833 O   0  0  0  0  0  0  0  0  0  0  0  0
    2.6105   -0.1667    0.2920 P   0  0  0  0  0  0  0  0  0  0  0  0
    3.1056    1.2658    1.5250 S   0  0  0  0  0  0  0  0  0  0  0  0
    3.6562   -1.3540    0.1374 O   0  0  0  0  0  0  0  0  0  0  0  0
    4.3919   -1.8906    1.2532 C   0  0  0  0  0  0  0  0  0  0  0  0
    3.4979   -2.6075    2.2438 C   0  0  0  0  0  0  0  0  0  0  0  0
    0.7758   -1.1466    0.7274 S   0  0  0  0  0  0  0  0  0  0  0  0
   -0.0490    0.3378    1.4070 C   0  0  0  0  0  0  0  0  0  0  0  0
   -1.8199    0.0856    1.5461 S   0  0  0  0  0  0  0  0  0  0  0  0
   -2.3927    0.7631   -0.4095 P   0  0  0  0  0  0  0  0  0  0  0  0
   -0.9545    1.0889   -1.6944 S   0  0  0  0  0  0  0  0  0  0  0  0
   -3.1709    2.1131   -0.1750 O   0  0  0  0  0  0  0  0  0  0  0  0
   -4.3032    2.2403    0.7206 C   0  0  0  0  0  0  0  0  0  0  0  0
   -5.6070    2.1531   -0.0460 C   0  0  0  0  0  0  0  0  0  0  0  0
   -3.5617   -0.2304   -0.8164 O   0  0  0  0  0  0  0  0  0  0  0  0
   -3.4856   -1.6692   -0.7881 C   0  0  0  0  0  0  0  0  0  0  0  0
   -2.2869   -2.2092   -1.5386 C   0  0  0  0  0  0  0  0  0  0  0  0
    3.1736   -1.4196   -3.9449 H   0  0  0  0  0  0  0  0  0  0  0  0
    3.9367    0.0735   -3.3731 H   0  0  0  0  0  0  0  0  0  0  0  0
    4.1024   -1.4164   -2.4347 H   0  0  0  0  0  0  0  0  0  0  0  0
    1.6628   -1.3989   -1.9475 H   0  0  0  0  0  0  0  0  0  0  0  0
    1.4692    0.0817   -2.9218 H   0  0  0  0  0  0  0  0  0  0  0  0
    5.1052   -2.5726    0.7881 H   0  0  0  0  0  0  0  0  0  0  0  0
    4.9251   -1.0681    1.7397 H   0  0  0  0  0  0  0  0  0  0  0  0
    2.8784   -3.3412    1.7343 H   0  0  0  0  0  0  0  0  0  0  0  0
    4.1148   -3.1068    2.9840 H   0  0  0  0  0  0  0  0  0  0  0  0
    2.8522   -1.8918    2.7502 H   0  0  0  0  0  0  0  0  0  0  0  0
    0.1503    1.1781    0.7391 H   0  0  0  0  0  0  0  0  0  0  0  0
    0.3376    0.5309    2.4053 H   0  0  0  0  0  0  0  0  0  0  0  0
   -4.2371    1.4631    1.4875 H   0  0  0  0  0  0  0  0  0  0  0  0
   -4.1777    3.2223    1.1804 H   0  0  0  0  0  0  0  0  0  0  0  0
   -6.4327    2.3141    0.6400 H   0  0  0  0  0  0  0  0  0  0  0  0
   -5.6324    2.9124   -0.8229 H   0  0  0  0  0  0  0  0  0  0  0  0
   -5.7089    1.1759   -0.5096 H   0  0  0  0  0  0  0  0  0  0  0  0
   -3.4625   -1.9875    0.2576 H   0  0  0  0  0  0  0  0  0  0  0  0
   -4.4217   -1.9833   -1.2531 H   0  0  0  0  0  0  0  0  0  0  0  0
   -2.3441   -3.2921   -1.5776 H   0  0  0  0  0  0  0  0  0  0  0  0
   -2.2623   -1.8117   -2.5506 H   0  0  0  0  0  0  0  0  0  0  0  0
   -1.3653   -1.9248   -1.0314 H   0  0  0  0  0  0  0  0  0  0  0  0
  1  2  1  0  0  0  0
  2  3  1  0  0  0  0
  3  4  2  0  0  0  0
  4  5  2  0  0  0  0
  4  6  2  0  0  0  0
  6  7  1  0  0  0  0
  7  8  1  0  0  0  0
  4  9  1  0  0  0  0
  9 10  1  0  0  0  0
 10 11  1  0  0  0  0
 11 12  1  0  0  0  0
 12 13  2  0  0  0  0
 12 14  2  0  0  0  0
 14 15  1  0  0  0  0
 15 16  1  0  0  0  0
 12 17  2  0  0  0  0
 17 18  1  0  0  0  0
 18 19  1  0  0  0  0
  1 20  1  0  0  0  0
  1 21  1  0  0  0  0
  1 22  1  0  0  0  0
  2 23  1  0  0  0  0
  2 24  1  0  0  0  0
  7 25  1  0  0  0  0
  7 26  1  0  0  0  0
  8 27  1  0  0  0  0
  8 28  1  0  0  0  0
  8 29  1  0  0  0  0
 10 30  1  0  0  0  0
 10 31  1  0  0  0  0
 15 32  1  0  0  0  0
 15 33  1  0  0  0  0
 16 34  1  0  0  0  0
 16 35  1  0  0  0  0
 16 36  1  0  0  0  0
 18 37  1  0  0  0  0
 18 38  1  0  0  0  0
 19 39  1  0  0  0  0
 19 40  1  0  0  0  0
 19 41  1  0  0  0  0
M  END
