 xtb: 6.7.1 (edcfbbe)
          04092507313D

 38 37  0     0  0            999 V2000
    2.0407   -4.3669   -0.9528 C   0  0  0  0  0  0  0  0  0  0  0  0
    1.6805   -3.1009   -0.1986 C   0  0  0  0  0  0  0  0  0  0  0  0
    1.6218   -2.0126   -1.1392 O   0  0  0  0  0  0  0  0  0  0  0  0
    1.9787   -0.8086   -0.7628 C   0  0  0  0  0  0  0  0  0  0  0  0
    2.3708   -0.5126    0.3493 O   0  0  0  0  0  0  0  0  0  0  0  0
    1.8129    0.1994   -1.8853 C   0  0  0  0  0  0  0  0  0  0  0  0
    0.5878    1.0797   -1.5910 C   0  0  0  0  0  0  0  0  0  0  0  0
    0.4969    1.8617   -2.3462 H   0  0  0  0  0  0  0  0  0  0  0  0
    0.7361    1.6922   -0.2169 C   0  0  0  0  0  0  0  0  0  0  0  0
    0.1650    1.2399    0.7604 O   0  0  0  0  0  0  0  0  0  0  0  0
    1.5313    2.7174   -0.2169 O   0  0  0  0  0  0  0  0  0  0  0  0
    1.8693    3.3384    1.0451 C   0  0  0  0  0  0  0  0  0  0  0  0
    3.1380    2.7167    1.6042 C   0  0  0  0  0  0  0  0  0  0  0  0
   -0.9490    0.0953   -1.6486 S   0  0  0  0  0  0  0  0  0  0  0  0
   -1.6797   -0.1596    0.3370 P   0  0  0  0  0  0  0  0  0  0  0  0
   -2.6199    1.2688    1.3196 S   0  0  0  0  0  0  0  0  0  0  0  0
   -2.7511   -1.2893   -0.0853 O   0  0  0  0  0  0  0  0  0  0  0  0
   -3.9570   -0.9770   -0.7824 C   0  0  0  0  0  0  0  0  0  0  0  0
   -0.7695   -1.1994    1.1312 O   0  0  0  0  0  0  0  0  0  0  0  0
   -0.1669   -0.9410    2.4005 C   0  0  0  0  0  0  0  0  0  0  0  0
    3.0220   -4.2687   -1.4084 H   0  0  0  0  0  0  0  0  0  0  0  0
    2.0498   -5.2030   -0.2616 H   0  0  0  0  0  0  0  0  0  0  0  0
    1.3073   -4.5531   -1.7315 H   0  0  0  0  0  0  0  0  0  0  0  0
    2.4190   -2.8559    0.5712 H   0  0  0  0  0  0  0  0  0  0  0  0
    0.6931   -3.1796    0.2667 H   0  0  0  0  0  0  0  0  0  0  0  0
    1.6615   -0.3271   -2.8259 H   0  0  0  0  0  0  0  0  0  0  0  0
    2.6983    0.8349   -1.9310 H   0  0  0  0  0  0  0  0  0  0  0  0
    2.0094    4.3915    0.8011 H   0  0  0  0  0  0  0  0  0  0  0  0
    1.0289    3.2131    1.7327 H   0  0  0  0  0  0  0  0  0  0  0  0
    3.9734    2.8985    0.9344 H   0  0  0  0  0  0  0  0  0  0  0  0
    3.3541    3.1512    2.5742 H   0  0  0  0  0  0  0  0  0  0  0  0
    3.0074    1.6419    1.7168 H   0  0  0  0  0  0  0  0  0  0  0  0
   -3.7494   -0.8206   -1.8412 H   0  0  0  0  0  0  0  0  0  0  0  0
   -4.4152   -0.0814   -0.3566 H   0  0  0  0  0  0  0  0  0  0  0  0
   -4.6086   -1.8362   -0.6432 H   0  0  0  0  0  0  0  0  0  0  0  0
   -0.6405   -0.0829    2.8797 H   0  0  0  0  0  0  0  0  0  0  0  0
    0.8950   -0.7415    2.2544 H   0  0  0  0  0  0  0  0  0  0  0  0
   -0.3150   -1.8383    2.9974 H   0  0  0  0  0  0  0  0  0  0  0  0
  1  2  1  0  0  0  0
  2  3  1  0  0  0  0
  3  4  4  0  0  0  0
  4  5  2  0  0  0  0
  4  6  1  0  0  0  0
  6  7  1  0  0  0  0
  7  8  1  0  0  0  0
  7  9  1  0  0  0  0
  9 10  2  0  0  0  0
  9 11  4  0  0  0  0
 11 12  1  0  0  0  0
 12 13  1  0  0  0  0
  7 14  1  0  0  0  0
 14 15  1  0  0  0  0
 15 16  2  0  0  0  0
 15 17  1  0  0  0  0
 17 18  1  0  0  0  0
 15 19  1  0  0  0  0
 19 20  1  0  0  0  0
  1 21  1  0  0  0  0
  1 22  1  0  0  0  0
  1 23  1  0  0  0  0
  2 24  1  0  0  0  0
  2 25  1  0  0  0  0
  6 26  1  0  0  0  0
  6 27  1  0  0  0  0
 12 28  1  0  0  0  0
 12 29  1  0  0  0  0
 13 30  1  0  0  0  0
 13 31  1  0  0  0  0
 13 32  1  0  0  0  0
 18 33  1  0  0  0  0
 18 34  1  0  0  0  0
 18 35  1  0  0  0  0
 20 36  1  0  0  0  0
 20 37  1  0  0  0  0
 20 38  1  0  0  0  0
M  END
