 xtb: 6.7.1 (edcfbbe)
          04032519533D

  9  8  0     0  0            999 V2000
    1.2782   -0.2530    0.0153 C   0  0  0  0  0  0  0  0  0  0  0  0
   -0.0106    0.5597   -0.0334 C   0  0  0  0  0  0  0  0  0  0  0  0
   -1.1731   -0.2402    0.0577 O   0  0  0  0  0  0  0  0  0  0  0  0
    2.1321    0.4175    0.0253 H   0  0  0  0  0  0  0  0  0  0  0  0
    1.2982   -0.8643    0.9140 H   0  0  0  0  0  0  0  0  0  0  0  0
    1.3550   -0.9032   -0.8533 H   0  0  0  0  0  0  0  0  0  0  0  0
   -0.0426    1.1622   -0.9519 H   0  0  0  0  0  0  0  0  0  0  0  0
   -0.0642    1.2367    0.8226 H   0  0  0  0  0  0  0  0  0  0  0  0
   -1.1627   -0.8912   -0.6580 H   0  0  0  0  0  0  0  0  0  0  0  0
  1  2  1  0  0  0  0
  2  3  1  0  0  0  0
  1  4  1  0  0  0  0
  1  5  1  0  0  0  0
  1  6  1  0  0  0  0
  2  7  1  0  0  0  0
  2  8  1  0  0  0  0
  3  9  1  0  0  0  0
M  END
