 xtb: 6.7.1 (edcfbbe)
          04092505213D

 41 40  0     0  0            999 V2000
    4.3034    0.0971   -2.2807 C   0  0  0  0  0  0  0  0  0  0  0  0
    2.9475   -0.5464   -2.0784 C   0  0  0  0  0  0  0  0  0  0  0  0
    2.1173    0.2675   -1.2113 O   0  0  0  0  0  0  0  0  0  0  0  0
    1.9900    0.0587    0.3401 P   0  0  0  0  0  0  0  0  0  0  0  0
    0.8937    1.4357    1.1887 S   0  0  0  0  0  0  0  0  0  0  0  0
    3.4962    0.0239    0.8392 O   0  0  0  0  0  0  0  0  0  0  0  0
    3.8141   -0.0824    2.2430 C   0  0  0  0  0  0  0  0  0  0  0  0
    5.2684    0.3030    2.4208 C   0  0  0  0  0  0  0  0  0  0  0  0
    1.4261   -1.9826    0.6240 S   0  0  0  0  0  0  0  0  0  0  0  0
   -0.2335   -1.9549   -0.0908 C   0  0  0  0  0  0  0  0  0  0  0  0
   -1.4783   -1.1749    0.9985 S   0  0  0  0  0  0  0  0  0  0  0  0
   -2.2751    0.1674   -0.4038 P   0  0  0  0  0  0  0  0  0  0  0  0
   -1.0925    0.8584   -1.8191 S   0  0  0  0  0  0  0  0  0  0  0  0
   -3.0950    1.2619    0.3992 O   0  0  0  0  0  0  0  0  0  0  0  0
   -2.5469    2.4284    1.0391 C   0  0  0  0  0  0  0  0  0  0  0  0
   -2.3610    2.1827    2.5225 C   0  0  0  0  0  0  0  0  0  0  0  0
   -3.4491   -0.7426   -0.9502 O   0  0  0  0  0  0  0  0  0  0  0  0
   -4.2703   -0.3473   -2.0727 C   0  0  0  0  0  0  0  0  0  0  0  0
   -4.8452   -1.6031   -2.6948 C   0  0  0  0  0  0  0  0  0  0  0  0
    4.1820    1.1045   -2.6697 H   0  0  0  0  0  0  0  0  0  0  0  0
    4.8405    0.1475   -1.3375 H   0  0  0  0  0  0  0  0  0  0  0  0
    4.8737   -0.4952   -2.9894 H   0  0  0  0  0  0  0  0  0  0  0  0
    3.0436   -1.5447   -1.6424 H   0  0  0  0  0  0  0  0  0  0  0  0
    2.3856   -0.5975   -3.0132 H   0  0  0  0  0  0  0  0  0  0  0  0
    3.1494    0.5848    2.8013 H   0  0  0  0  0  0  0  0  0  0  0  0
    3.6312   -1.1140    2.5545 H   0  0  0  0  0  0  0  0  0  0  0  0
    5.4278    1.3242    2.0859 H   0  0  0  0  0  0  0  0  0  0  0  0
    5.5295    0.2262    3.4710 H   0  0  0  0  0  0  0  0  0  0  0  0
    5.9035   -0.3623    1.8431 H   0  0  0  0  0  0  0  0  0  0  0  0
   -0.5103   -2.9952   -0.2383 H   0  0  0  0  0  0  0  0  0  0  0  0
   -0.2142   -1.4050   -1.0352 H   0  0  0  0  0  0  0  0  0  0  0  0
   -1.5986    2.6945    0.5623 H   0  0  0  0  0  0  0  0  0  0  0  0
   -3.2821    3.2141    0.8544 H   0  0  0  0  0  0  0  0  0  0  0  0
   -3.2923    1.8375    2.9622 H   0  0  0  0  0  0  0  0  0  0  0  0
   -1.5886    1.4342    2.6860 H   0  0  0  0  0  0  0  0  0  0  0  0
   -2.0522    3.1076    2.9982 H   0  0  0  0  0  0  0  0  0  0  0  0
   -5.0557    0.3116   -1.6960 H   0  0  0  0  0  0  0  0  0  0  0  0
   -3.6461    0.2065   -2.7826 H   0  0  0  0  0  0  0  0  0  0  0  0
   -5.4121   -2.1561   -1.9517 H   0  0  0  0  0  0  0  0  0  0  0  0
   -5.4988   -1.3262   -3.5156 H   0  0  0  0  0  0  0  0  0  0  0  0
   -4.0454   -2.2351   -3.0701 H   0  0  0  0  0  0  0  0  0  0  0  0
  1  2  1  0  0  0  0
  2  3  1  0  0  0  0
  3  4  2  0  0  0  0
  4  5  2  0  0  0  0
  4  6  2  0  0  0  0
  6  7  1  0  0  0  0
  7  8  1  0  0  0  0
  4  9  1  0  0  0  0
  9 10  1  0  0  0  0
 10 11  1  0  0  0  0
 11 12  1  0  0  0  0
 12 13  2  0  0  0  0
 12 14  2  0  0  0  0
 14 15  1  0  0  0  0
 15 16  1  0  0  0  0
 12 17  2  0  0  0  0
 17 18  1  0  0  0  0
 18 19  1  0  0  0  0
  1 20  1  0  0  0  0
  1 21  1  0  0  0  0
  1 22  1  0  0  0  0
  2 23  1  0  0  0  0
  2 24  1  0  0  0  0
  7 25  1  0  0  0  0
  7 26  1  0  0  0  0
  8 27  1  0  0  0  0
  8 28  1  0  0  0  0
  8 29  1  0  0  0  0
 10 30  1  0  0  0  0
 10 31  1  0  0  0  0
 15 32  1  0  0  0  0
 15 33  1  0  0  0  0
 16 34  1  0  0  0  0
 16 35  1  0  0  0  0
 16 36  1  0  0  0  0
 18 37  1  0  0  0  0
 18 38  1  0  0  0  0
 19 39  1  0  0  0  0
 19 40  1  0  0  0  0
 19 41  1  0  0  0  0
M  END
