 xtb: 6.7.1 (edcfbbe)
          04092505203D

 41 40  0     0  0            999 V2000
    1.1559    3.1493    1.4712 C   0  0  0  0  0  0  0  0  0  0  0  0
    1.9094    1.9161    1.0208 C   0  0  0  0  0  0  0  0  0  0  0  0
    1.1591    0.7596    1.4698 O   0  0  0  0  0  0  0  0  0  0  0  0
    1.4705   -0.7003    0.9749 P   0  0  0  0  0  0  0  0  0  0  0  0
    0.5039   -2.0993    1.9400 S   0  0  0  0  0  0  0  0  0  0  0  0
    3.0522   -0.7419    1.1829 O   0  0  0  0  0  0  0  0  0  0  0  0
    3.8056   -1.9466    0.9432 C   0  0  0  0  0  0  0  0  0  0  0  0
    5.2062   -1.7341    1.4807 C   0  0  0  0  0  0  0  0  0  0  0  0
    1.3551   -0.7962   -1.1551 S   0  0  0  0  0  0  0  0  0  0  0  0
   -0.1112   -1.8366   -1.3584 C   0  0  0  0  0  0  0  0  0  0  0  0
   -1.5549   -1.0126   -2.1072 S   0  0  0  0  0  0  0  0  0  0  0  0
   -1.8145    0.6230   -0.7811 P   0  0  0  0  0  0  0  0  0  0  0  0
   -3.5416    1.5306   -0.9224 S   0  0  0  0  0  0  0  0  0  0  0  0
   -0.5284    1.5277   -1.0162 O   0  0  0  0  0  0  0  0  0  0  0  0
   -0.3389    2.1925   -2.2845 C   0  0  0  0  0  0  0  0  0  0  0  0
   -0.7345    3.6523   -2.1879 C   0  0  0  0  0  0  0  0  0  0  0  0
   -1.4114    0.0843    0.6572 O   0  0  0  0  0  0  0  0  0  0  0  0
   -2.4302   -0.2579    1.6155 C   0  0  0  0  0  0  0  0  0  0  0  0
   -3.1118   -1.5661    1.2695 C   0  0  0  0  0  0  0  0  0  0  0  0
    0.1574    3.1495    1.0411 H   0  0  0  0  0  0  0  0  0  0  0  0
    1.0672    3.1581    2.5539 H   0  0  0  0  0  0  0  0  0  0  0  0
    1.6922    4.0351    1.1460 H   0  0  0  0  0  0  0  0  0  0  0  0
    2.9057    1.8650    1.4642 H   0  0  0  0  0  0  0  0  0  0  0  0
    1.9927    1.8719   -0.0684 H   0  0  0  0  0  0  0  0  0  0  0  0
    3.3026   -2.7771    1.4491 H   0  0  0  0  0  0  0  0  0  0  0  0
    3.8157   -2.1368   -0.1337 H   0  0  0  0  0  0  0  0  0  0  0  0
    5.7917   -2.6314    1.3106 H   0  0  0  0  0  0  0  0  0  0  0  0
    5.6761   -0.8962    0.9740 H   0  0  0  0  0  0  0  0  0  0  0  0
    5.1695   -1.5267    2.5465 H   0  0  0  0  0  0  0  0  0  0  0  0
   -0.3780   -2.2450   -0.3803 H   0  0  0  0  0  0  0  0  0  0  0  0
    0.1402   -2.6302   -2.0578 H   0  0  0  0  0  0  0  0  0  0  0  0
    0.7234    2.0764   -2.5123 H   0  0  0  0  0  0  0  0  0  0  0  0
   -0.9281    1.6792   -3.0527 H   0  0  0  0  0  0  0  0  0  0  0  0
   -1.7899    3.7369   -1.9377 H   0  0  0  0  0  0  0  0  0  0  0  0
   -0.1500    4.1518   -1.4207 H   0  0  0  0  0  0  0  0  0  0  0  0
   -0.5579    4.1322   -3.1450 H   0  0  0  0  0  0  0  0  0  0  0  0
   -1.8927   -0.3245    2.5627 H   0  0  0  0  0  0  0  0  0  0  0  0
   -3.1569    0.5594    1.6526 H   0  0  0  0  0  0  0  0  0  0  0  0
   -2.3892   -2.3790    1.2599 H   0  0  0  0  0  0  0  0  0  0  0  0
   -3.8715   -1.7790    2.0146 H   0  0  0  0  0  0  0  0  0  0  0  0
   -3.5866   -1.4899    0.2912 H   0  0  0  0  0  0  0  0  0  0  0  0
  1  2  1  0  0  0  0
  2  3  1  0  0  0  0
  3  4  2  0  0  0  0
  4  5  2  0  0  0  0
  4  6  2  0  0  0  0
  6  7  1  0  0  0  0
  7  8  1  0  0  0  0
  4  9  1  0  0  0  0
  9 10  1  0  0  0  0
 10 11  1  0  0  0  0
 11 12  1  0  0  0  0
 12 13  2  0  0  0  0
 12 14  2  0  0  0  0
 14 15  1  0  0  0  0
 15 16  1  0  0  0  0
 12 17  2  0  0  0  0
 17 18  1  0  0  0  0
 18 19  1  0  0  0  0
  1 20  1  0  0  0  0
  1 21  1  0  0  0  0
  1 22  1  0  0  0  0
  2 23  1  0  0  0  0
  2 24  1  0  0  0  0
  7 25  1  0  0  0  0
  7 26  1  0  0  0  0
  8 27  1  0  0  0  0
  8 28  1  0  0  0  0
  8 29  1  0  0  0  0
 10 30  1  0  0  0  0
 10 31  1  0  0  0  0
 15 32  1  0  0  0  0
 15 33  1  0  0  0  0
 16 34  1  0  0  0  0
 16 35  1  0  0  0  0
 16 36  1  0  0  0  0
 18 37  1  0  0  0  0
 18 38  1  0  0  0  0
 19 39  1  0  0  0  0
 19 40  1  0  0  0  0
 19 41  1  0  0  0  0
M  END
