 xtb: 6.7.1 (edcfbbe)
          04092505203D

 41 40  0     0  0            999 V2000
    3.1593    2.4186    2.2498 C   0  0  0  0  0  0  0  0  0  0  0  0
    1.7764    1.8211    2.1004 C   0  0  0  0  0  0  0  0  0  0  0  0
    1.6002    1.2027    0.8069 O   0  0  0  0  0  0  0  0  0  0  0  0
    2.3512   -0.1335    0.4042 P   0  0  0  0  0  0  0  0  0  0  0  0
    2.6988   -1.3976    1.8662 S   0  0  0  0  0  0  0  0  0  0  0  0
    3.6397    0.4265   -0.3357 O   0  0  0  0  0  0  0  0  0  0  0  0
    4.7878   -0.3952   -0.6093 C   0  0  0  0  0  0  0  0  0  0  0  0
    4.4875   -1.4764   -1.6273 C   0  0  0  0  0  0  0  0  0  0  0  0
    1.0857   -0.7931   -1.1594 S   0  0  0  0  0  0  0  0  0  0  0  0
   -0.0595   -1.7115   -0.0946 C   0  0  0  0  0  0  0  0  0  0  0  0
   -1.1429   -0.6296    0.8628 S   0  0  0  0  0  0  0  0  0  0  0  0
   -2.3751   -0.0072   -0.7702 P   0  0  0  0  0  0  0  0  0  0  0  0
   -2.6356   -1.3554   -2.1640 S   0  0  0  0  0  0  0  0  0  0  0  0
   -1.7887    1.3217   -1.3681 O   0  0  0  0  0  0  0  0  0  0  0  0
   -1.2015    2.4467   -0.6676 C   0  0  0  0  0  0  0  0  0  0  0  0
   -2.0197    2.9068    0.5191 C   0  0  0  0  0  0  0  0  0  0  0  0
   -3.7074    0.4720   -0.0529 O   0  0  0  0  0  0  0  0  0  0  0  0
   -4.6440   -0.4815    0.4878 C   0  0  0  0  0  0  0  0  0  0  0  0
   -5.9795    0.2161    0.6482 C   0  0  0  0  0  0  0  0  0  0  0  0
    3.2178    2.9613    3.1880 H   0  0  0  0  0  0  0  0  0  0  0  0
    3.9068    1.6262    2.2527 H   0  0  0  0  0  0  0  0  0  0  0  0
    3.3681    3.0947    1.4250 H   0  0  0  0  0  0  0  0  0  0  0  0
    0.9977    2.5840    2.1355 H   0  0  0  0  0  0  0  0  0  0  0  0
    1.5915    1.0664    2.8712 H   0  0  0  0  0  0  0  0  0  0  0  0
    5.5333    0.3103   -0.9783 H   0  0  0  0  0  0  0  0  0  0  0  0
    5.1267   -0.8397    0.3320 H   0  0  0  0  0  0  0  0  0  0  0  0
    3.7837   -2.1962   -1.2104 H   0  0  0  0  0  0  0  0  0  0  0  0
    4.0514   -1.0426   -2.5239 H   0  0  0  0  0  0  0  0  0  0  0  0
    5.4060   -1.9933   -1.8862 H   0  0  0  0  0  0  0  0  0  0  0  0
    0.5068   -2.3094    0.6198 H   0  0  0  0  0  0  0  0  0  0  0  0
   -0.6656   -2.3359   -0.7521 H   0  0  0  0  0  0  0  0  0  0  0  0
   -0.1912    2.1598   -0.3650 H   0  0  0  0  0  0  0  0  0  0  0  0
   -1.1464    3.2145   -1.4411 H   0  0  0  0  0  0  0  0  0  0  0  0
   -2.0318    2.1404    1.2922 H   0  0  0  0  0  0  0  0  0  0  0  0
   -1.5768    3.8123    0.9232 H   0  0  0  0  0  0  0  0  0  0  0  0
   -3.0417    3.1138    0.2126 H   0  0  0  0  0  0  0  0  0  0  0  0
   -4.7158   -1.3304   -0.2007 H   0  0  0  0  0  0  0  0  0  0  0  0
   -4.2563   -0.8314    1.4483 H   0  0  0  0  0  0  0  0  0  0  0  0
   -6.3328    0.5694   -0.3165 H   0  0  0  0  0  0  0  0  0  0  0  0
   -6.6994   -0.4846    1.0580 H   0  0  0  0  0  0  0  0  0  0  0  0
   -5.8792    1.0636    1.3198 H   0  0  0  0  0  0  0  0  0  0  0  0
  1  2  1  0  0  0  0
  2  3  1  0  0  0  0
  3  4  2  0  0  0  0
  4  5  2  0  0  0  0
  4  6  2  0  0  0  0
  6  7  1  0  0  0  0
  7  8  1  0  0  0  0
  4  9  1  0  0  0  0
  9 10  1  0  0  0  0
 10 11  1  0  0  0  0
 11 12  1  0  0  0  0
 12 13  2  0  0  0  0
 12 14  2  0  0  0  0
 14 15  1  0  0  0  0
 15 16  1  0  0  0  0
 12 17  2  0  0  0  0
 17 18  1  0  0  0  0
 18 19  1  0  0  0  0
  1 20  1  0  0  0  0
  1 21  1  0  0  0  0
  1 22  1  0  0  0  0
  2 23  1  0  0  0  0
  2 24  1  0  0  0  0
  7 25  1  0  0  0  0
  7 26  1  0  0  0  0
  8 27  1  0  0  0  0
  8 28  1  0  0  0  0
  8 29  1  0  0  0  0
 10 30  1  0  0  0  0
 10 31  1  0  0  0  0
 15 32  1  0  0  0  0
 15 33  1  0  0  0  0
 16 34  1  0  0  0  0
 16 35  1  0  0  0  0
 16 36  1  0  0  0  0
 18 37  1  0  0  0  0
 18 38  1  0  0  0  0
 19 39  1  0  0  0  0
 19 40  1  0  0  0  0
 19 41  1  0  0  0  0
M  END
