 xtb: 6.7.1 (edcfbbe)
          04092505203D

 41 40  0     0  0            999 V2000
    5.4751    0.7644   -0.3802 C   0  0  0  0  0  0  0  0  0  0  0  0
    4.4736   -0.1076   -1.1117 C   0  0  0  0  0  0  0  0  0  0  0  0
    3.5170   -0.6943   -0.2075 O   0  0  0  0  0  0  0  0  0  0  0  0
    2.2087    0.0494    0.3028 P   0  0  0  0  0  0  0  0  0  0  0  0
    2.4253    1.6477    1.4051 S   0  0  0  0  0  0  0  0  0  0  0  0
    1.4709   -1.0936    1.0972 O   0  0  0  0  0  0  0  0  0  0  0  0
    1.3240   -2.4476    0.6037 C   0  0  0  0  0  0  0  0  0  0  0  0
    2.3731   -3.3501    1.2168 C   0  0  0  0  0  0  0  0  0  0  0  0
    1.1369    0.3419   -1.5231 S   0  0  0  0  0  0  0  0  0  0  0  0
    0.0177    1.6309   -0.9069 C   0  0  0  0  0  0  0  0  0  0  0  0
   -0.9404    1.1437    0.5485 S   0  0  0  0  0  0  0  0  0  0  0  0
   -2.3602   -0.1158   -0.4441 P   0  0  0  0  0  0  0  0  0  0  0  0
   -1.6755   -1.7798   -1.2138 S   0  0  0  0  0  0  0  0  0  0  0  0
   -3.0366    0.7972   -1.5405 O   0  0  0  0  0  0  0  0  0  0  0  0
   -4.1368    1.7163   -1.3218 C   0  0  0  0  0  0  0  0  0  0  0  0
   -3.7702    2.8684   -0.4103 C   0  0  0  0  0  0  0  0  0  0  0  0
   -3.5099   -0.3065    0.6354 O   0  0  0  0  0  0  0  0  0  0  0  0
   -3.4715   -1.3729    1.5995 C   0  0  0  0  0  0  0  0  0  0  0  0
   -2.4228   -1.1337    2.6667 C   0  0  0  0  0  0  0  0  0  0  0  0
    6.2126    1.1300   -1.0874 H   0  0  0  0  0  0  0  0  0  0  0  0
    4.9742    1.6116    0.0828 H   0  0  0  0  0  0  0  0  0  0  0  0
    5.9743    0.1910    0.3962 H   0  0  0  0  0  0  0  0  0  0  0  0
    4.9612   -0.9677   -1.5750 H   0  0  0  0  0  0  0  0  0  0  0  0
    3.9381    0.4621   -1.8764 H   0  0  0  0  0  0  0  0  0  0  0  0
    0.3159   -2.7473    0.8976 H   0  0  0  0  0  0  0  0  0  0  0  0
    1.3833   -2.4421   -0.4882 H   0  0  0  0  0  0  0  0  0  0  0  0
    3.3665   -3.0343    0.9098 H   0  0  0  0  0  0  0  0  0  0  0  0
    2.3099   -3.3074    2.3007 H   0  0  0  0  0  0  0  0  0  0  0  0
    2.1992   -4.3688    0.8848 H   0  0  0  0  0  0  0  0  0  0  0  0
   -0.6486    1.8756   -1.7315 H   0  0  0  0  0  0  0  0  0  0  0  0
    0.6080    2.4924   -0.5962 H   0  0  0  0  0  0  0  0  0  0  0  0
   -4.3736    2.0597   -2.3301 H   0  0  0  0  0  0  0  0  0  0  0  0
   -4.9761    1.1506   -0.9142 H   0  0  0  0  0  0  0  0  0  0  0  0
   -4.6100    3.5547   -0.3593 H   0  0  0  0  0  0  0  0  0  0  0  0
   -3.5497    2.5053    0.5910 H   0  0  0  0  0  0  0  0  0  0  0  0
   -2.9015    3.4003   -0.7903 H   0  0  0  0  0  0  0  0  0  0  0  0
   -4.4774   -1.3825    2.0214 H   0  0  0  0  0  0  0  0  0  0  0  0
   -3.2793   -2.3116    1.0695 H   0  0  0  0  0  0  0  0  0  0  0  0
   -2.5754   -0.1677    3.1412 H   0  0  0  0  0  0  0  0  0  0  0  0
   -2.4858   -1.9166    3.4157 H   0  0  0  0  0  0  0  0  0  0  0  0
   -1.4256   -1.1463    2.2271 H   0  0  0  0  0  0  0  0  0  0  0  0
  1  2  1  0  0  0  0
  2  3  1  0  0  0  0
  3  4  2  0  0  0  0
  4  5  2  0  0  0  0
  4  6  2  0  0  0  0
  6  7  1  0  0  0  0
  7  8  1  0  0  0  0
  4  9  1  0  0  0  0
  9 10  1  0  0  0  0
 10 11  1  0  0  0  0
 11 12  1  0  0  0  0
 12 13  2  0  0  0  0
 12 14  2  0  0  0  0
 14 15  1  0  0  0  0
 15 16  1  0  0  0  0
 12 17  2  0  0  0  0
 17 18  1  0  0  0  0
 18 19  1  0  0  0  0
  1 20  1  0  0  0  0
  1 21  1  0  0  0  0
  1 22  1  0  0  0  0
  2 23  1  0  0  0  0
  2 24  1  0  0  0  0
  7 25  1  0  0  0  0
  7 26  1  0  0  0  0
  8 27  1  0  0  0  0
  8 28  1  0  0  0  0
  8 29  1  0  0  0  0
 10 30  1  0  0  0  0
 10 31  1  0  0  0  0
 15 32  1  0  0  0  0
 15 33  1  0  0  0  0
 16 34  1  0  0  0  0
 16 35  1  0  0  0  0
 16 36  1  0  0  0  0
 18 37  1  0  0  0  0
 18 38  1  0  0  0  0
 19 39  1  0  0  0  0
 19 40  1  0  0  0  0
 19 41  1  0  0  0  0
M  END
