 xtb: 6.7.1 (edcfbbe)
          04092505203D

 41 40  0     0  0            999 V2000
    4.6739   -1.4986   -0.7906 C   0  0  0  0  0  0  0  0  0  0  0  0
    4.6871   -0.0804   -0.2575 C   0  0  0  0  0  0  0  0  0  0  0  0
    3.5050    0.2286    0.5003 O   0  0  0  0  0  0  0  0  0  0  0  0
    2.0662    0.3554   -0.1668 P   0  0  0  0  0  0  0  0  0  0  0  0
    2.0703    1.1743   -1.9515 S   0  0  0  0  0  0  0  0  0  0  0  0
    1.2615    1.0843    0.9871 O   0  0  0  0  0  0  0  0  0  0  0  0
    1.1979    2.5179    1.1046 C   0  0  0  0  0  0  0  0  0  0  0  0
    2.5441    3.1257    1.4343 C   0  0  0  0  0  0  0  0  0  0  0  0
    1.2983   -1.5930    0.0196 S   0  0  0  0  0  0  0  0  0  0  0  0
    0.0981   -1.6329   -1.3585 C   0  0  0  0  0  0  0  0  0  0  0  0
   -1.5819   -1.9853   -0.8003 S   0  0  0  0  0  0  0  0  0  0  0  0
   -1.9931   -0.1149    0.1236 P   0  0  0  0  0  0  0  0  0  0  0  0
   -1.4067    1.4505   -0.8984 S   0  0  0  0  0  0  0  0  0  0  0  0
   -1.3879   -0.1334    1.5739 O   0  0  0  0  0  0  0  0  0  0  0  0
   -1.3372   -1.2605    2.4871 C   0  0  0  0  0  0  0  0  0  0  0  0
   -2.6910   -1.8894    2.7297 C   0  0  0  0  0  0  0  0  0  0  0  0
   -3.5568   -0.1820    0.3832 O   0  0  0  0  0  0  0  0  0  0  0  0
   -4.5115    0.0088   -0.6806 C   0  0  0  0  0  0  0  0  0  0  0  0
   -5.4570    1.1320   -0.3026 C   0  0  0  0  0  0  0  0  0  0  0  0
    4.4759   -2.2033    0.0129 H   0  0  0  0  0  0  0  0  0  0  0  0
    3.8998   -1.6025   -1.5497 H   0  0  0  0  0  0  0  0  0  0  0  0
    5.6369   -1.7212   -1.2387 H   0  0  0  0  0  0  0  0  0  0  0  0
    4.7659    0.6369   -1.0809 H   0  0  0  0  0  0  0  0  0  0  0  0
    5.5000    0.0760    0.4528 H   0  0  0  0  0  0  0  0  0  0  0  0
    0.8020    2.9237    0.1672 H   0  0  0  0  0  0  0  0  0  0  0  0
    0.4686    2.6781    1.9007 H   0  0  0  0  0  0  0  0  0  0  0  0
    3.2247    2.9979    0.5933 H   0  0  0  0  0  0  0  0  0  0  0  0
    2.4184    4.1864    1.6277 H   0  0  0  0  0  0  0  0  0  0  0  0
    2.9691    2.6424    2.3102 H   0  0  0  0  0  0  0  0  0  0  0  0
    0.3741   -2.4476   -2.0226 H   0  0  0  0  0  0  0  0  0  0  0  0
    0.1270   -0.6706   -1.8774 H   0  0  0  0  0  0  0  0  0  0  0  0
   -0.6301   -1.9918    2.0847 H   0  0  0  0  0  0  0  0  0  0  0  0
   -0.9265   -0.8181    3.3959 H   0  0  0  0  0  0  0  0  0  0  0  0
   -3.0567   -2.3645    1.8218 H   0  0  0  0  0  0  0  0  0  0  0  0
   -2.5929   -2.6414    3.5066 H   0  0  0  0  0  0  0  0  0  0  0  0
   -3.4064   -1.1350    3.0461 H   0  0  0  0  0  0  0  0  0  0  0  0
   -3.9793    0.2457   -1.6069 H   0  0  0  0  0  0  0  0  0  0  0  0
   -5.0396   -0.9396   -0.7960 H   0  0  0  0  0  0  0  0  0  0  0  0
   -4.9049    2.0639   -0.2049 H   0  0  0  0  0  0  0  0  0  0  0  0
   -6.2086    1.2431   -1.0774 H   0  0  0  0  0  0  0  0  0  0  0  0
   -5.9424    0.9090    0.6429 H   0  0  0  0  0  0  0  0  0  0  0  0
  1  2  1  0  0  0  0
  2  3  1  0  0  0  0
  3  4  2  0  0  0  0
  4  5  2  0  0  0  0
  4  6  2  0  0  0  0
  6  7  1  0  0  0  0
  7  8  1  0  0  0  0
  4  9  1  0  0  0  0
  9 10  1  0  0  0  0
 10 11  1  0  0  0  0
 11 12  1  0  0  0  0
 12 13  2  0  0  0  0
 12 14  2  0  0  0  0
 14 15  1  0  0  0  0
 15 16  1  0  0  0  0
 12 17  2  0  0  0  0
 17 18  1  0  0  0  0
 18 19  1  0  0  0  0
  1 20  1  0  0  0  0
  1 21  1  0  0  0  0
  1 22  1  0  0  0  0
  2 23  1  0  0  0  0
  2 24  1  0  0  0  0
  7 25  1  0  0  0  0
  7 26  1  0  0  0  0
  8 27  1  0  0  0  0
  8 28  1  0  0  0  0
  8 29  1  0  0  0  0
 10 30  1  0  0  0  0
 10 31  1  0  0  0  0
 15 32  1  0  0  0  0
 15 33  1  0  0  0  0
 16 34  1  0  0  0  0
 16 35  1  0  0  0  0
 16 36  1  0  0  0  0
 18 37  1  0  0  0  0
 18 38  1  0  0  0  0
 19 39  1  0  0  0  0
 19 40  1  0  0  0  0
 19 41  1  0  0  0  0
M  END
