 xtb: 6.7.1 (edcfbbe)
          04092505213D

 41 40  0     0  0            999 V2000
    5.2073   -1.1638   -1.9241 C   0  0  0  0  0  0  0  0  0  0  0  0
    4.9560   -0.3294   -0.6838 C   0  0  0  0  0  0  0  0  0  0  0  0
    3.6915   -0.6924   -0.0822 O   0  0  0  0  0  0  0  0  0  0  0  0
    2.3803    0.1628   -0.3169 P   0  0  0  0  0  0  0  0  0  0  0  0
    1.9790    0.6421   -2.1800 S   0  0  0  0  0  0  0  0  0  0  0  0
    2.6769    1.4047    0.6340 O   0  0  0  0  0  0  0  0  0  0  0  0
    1.8756    2.5972    0.6916 C   0  0  0  0  0  0  0  0  0  0  0  0
    0.9753    2.5757    1.9106 C   0  0  0  0  0  0  0  0  0  0  0  0
    1.0416   -1.0924    0.7060 S   0  0  0  0  0  0  0  0  0  0  0  0
    0.0674   -1.6975   -0.7226 C   0  0  0  0  0  0  0  0  0  0  0  0
   -1.6488   -1.9875   -0.2760 S   0  0  0  0  0  0  0  0  0  0  0  0
   -2.1548    0.0198    0.2569 P   0  0  0  0  0  0  0  0  0  0  0  0
   -1.3189    1.4451   -0.7927 S   0  0  0  0  0  0  0  0  0  0  0  0
   -1.7694    0.2003    1.7741 O   0  0  0  0  0  0  0  0  0  0  0  0
   -2.2401   -0.6735    2.8305 C   0  0  0  0  0  0  0  0  0  0  0  0
   -3.3848   -0.0243    3.5810 C   0  0  0  0  0  0  0  0  0  0  0  0
   -3.7404   -0.0354    0.3225 O   0  0  0  0  0  0  0  0  0  0  0  0
   -4.5986   -0.5673   -0.7046 C   0  0  0  0  0  0  0  0  0  0  0  0
   -4.3399    0.0498   -2.0627 C   0  0  0  0  0  0  0  0  0  0  0  0
    4.4544   -0.9472   -2.6791 H   0  0  0  0  0  0  0  0  0  0  0  0
    6.1883   -0.9267   -2.3231 H   0  0  0  0  0  0  0  0  0  0  0  0
    5.1632   -2.2204   -1.6762 H   0  0  0  0  0  0  0  0  0  0  0  0
    4.9506    0.7379   -0.9204 H   0  0  0  0  0  0  0  0  0  0  0  0
    5.6981   -0.5289    0.0910 H   0  0  0  0  0  0  0  0  0  0  0  0
    2.5953    3.4164    0.7467 H   0  0  0  0  0  0  0  0  0  0  0  0
    1.2914    2.6878   -0.2307 H   0  0  0  0  0  0  0  0  0  0  0  0
    0.4677    3.5314    1.9919 H   0  0  0  0  0  0  0  0  0  0  0  0
    0.2261    1.7917    1.8173 H   0  0  0  0  0  0  0  0  0  0  0  0
    1.5652    2.3975    2.8052 H   0  0  0  0  0  0  0  0  0  0  0  0
    0.4651   -2.6542   -1.0517 H   0  0  0  0  0  0  0  0  0  0  0  0
    0.1247   -0.9476   -1.5174 H   0  0  0  0  0  0  0  0  0  0  0  0
   -2.5410   -1.6299    2.3942 H   0  0  0  0  0  0  0  0  0  0  0  0
   -1.3702   -0.8223    3.4728 H   0  0  0  0  0  0  0  0  0  0  0  0
   -3.0710    0.9353    3.9819 H   0  0  0  0  0  0  0  0  0  0  0  0
   -4.2285    0.1346    2.9148 H   0  0  0  0  0  0  0  0  0  0  0  0
   -3.6875   -0.6730    4.3969 H   0  0  0  0  0  0  0  0  0  0  0  0
   -4.4562   -1.6508   -0.7387 H   0  0  0  0  0  0  0  0  0  0  0  0
   -5.6029   -0.3338   -0.3468 H   0  0  0  0  0  0  0  0  0  0  0  0
   -4.4178    1.1333   -2.0096 H   0  0  0  0  0  0  0  0  0  0  0  0
   -3.3382   -0.2043   -2.4074 H   0  0  0  0  0  0  0  0  0  0  0  0
   -5.0646   -0.3286   -2.7763 H   0  0  0  0  0  0  0  0  0  0  0  0
  1  2  1  0  0  0  0
  2  3  1  0  0  0  0
  3  4  2  0  0  0  0
  4  5  2  0  0  0  0
  4  6  2  0  0  0  0
  6  7  1  0  0  0  0
  7  8  1  0  0  0  0
  4  9  1  0  0  0  0
  9 10  1  0  0  0  0
 10 11  1  0  0  0  0
 11 12  1  0  0  0  0
 12 13  2  0  0  0  0
 12 14  2  0  0  0  0
 14 15  1  0  0  0  0
 15 16  1  0  0  0  0
 12 17  2  0  0  0  0
 17 18  1  0  0  0  0
 18 19  1  0  0  0  0
  1 20  1  0  0  0  0
  1 21  1  0  0  0  0
  1 22  1  0  0  0  0
  2 23  1  0  0  0  0
  2 24  1  0  0  0  0
  7 25  1  0  0  0  0
  7 26  1  0  0  0  0
  8 27  1  0  0  0  0
  8 28  1  0  0  0  0
  8 29  1  0  0  0  0
 10 30  1  0  0  0  0
 10 31  1  0  0  0  0
 15 32  1  0  0  0  0
 15 33  1  0  0  0  0
 16 34  1  0  0  0  0
 16 35  1  0  0  0  0
 16 36  1  0  0  0  0
 18 37  1  0  0  0  0
 18 38  1  0  0  0  0
 19 39  1  0  0  0  0
 19 40  1  0  0  0  0
 19 41  1  0  0  0  0
M  END
