 xtb: 6.7.1 (edcfbbe)
          04092505203D

 41 40  0     0  0            999 V2000
    3.3791   -2.8429   -0.9966 C   0  0  0  0  0  0  0  0  0  0  0  0
    3.8531   -1.6526   -1.8009 C   0  0  0  0  0  0  0  0  0  0  0  0
    3.9335   -0.4389   -1.0129 O   0  0  0  0  0  0  0  0  0  0  0  0
    2.7838    0.2040   -0.1572 P   0  0  0  0  0  0  0  0  0  0  0  0
    3.1243    2.0917    0.2325 S   0  0  0  0  0  0  0  0  0  0  0  0
    2.7673   -0.7301    1.1325 O   0  0  0  0  0  0  0  0  0  0  0  0
    2.0837   -0.4010    2.3547 C   0  0  0  0  0  0  0  0  0  0  0  0
    0.9218   -1.3494    2.5783 C   0  0  0  0  0  0  0  0  0  0  0  0
    1.0006   -0.1899   -1.2762 S   0  0  0  0  0  0  0  0  0  0  0  0
    0.1441    1.3683   -0.9610 C   0  0  0  0  0  0  0  0  0  0  0  0
   -0.7164    1.3950    0.6317 S   0  0  0  0  0  0  0  0  0  0  0  0
   -2.3133    0.1430    0.0273 P   0  0  0  0  0  0  0  0  0  0  0  0
   -3.0221    0.4506   -1.7816 S   0  0  0  0  0  0  0  0  0  0  0  0
   -3.3291    0.2079    1.2444 O   0  0  0  0  0  0  0  0  0  0  0  0
   -3.8309    1.4095    1.8563 C   0  0  0  0  0  0  0  0  0  0  0  0
   -4.4184    2.3810    0.8535 C   0  0  0  0  0  0  0  0  0  0  0  0
   -1.6898   -1.2996    0.2342 O   0  0  0  0  0  0  0  0  0  0  0  0
   -2.1380   -2.4482   -0.5105 C   0  0  0  0  0  0  0  0  0  0  0  0
   -3.4993   -2.9062   -0.0322 C   0  0  0  0  0  0  0  0  0  0  0  0
    3.4304   -3.7329   -1.6162 H   0  0  0  0  0  0  0  0  0  0  0  0
    4.0043   -2.9768   -0.1179 H   0  0  0  0  0  0  0  0  0  0  0  0
    2.3493   -2.6918   -0.6788 H   0  0  0  0  0  0  0  0  0  0  0  0
    3.1881   -1.4635   -2.6475 H   0  0  0  0  0  0  0  0  0  0  0  0
    4.8765   -1.7845   -2.1552 H   0  0  0  0  0  0  0  0  0  0  0  0
    2.8331   -0.5072    3.1421 H   0  0  0  0  0  0  0  0  0  0  0  0
    1.7520    0.6423    2.3182 H   0  0  0  0  0  0  0  0  0  0  0  0
    0.1792   -1.2443    1.7910 H   0  0  0  0  0  0  0  0  0  0  0  0
    1.2779   -2.3756    2.5902 H   0  0  0  0  0  0  0  0  0  0  0  0
    0.4556   -1.1191    3.5307 H   0  0  0  0  0  0  0  0  0  0  0  0
   -0.5842    1.4980   -1.7625 H   0  0  0  0  0  0  0  0  0  0  0  0
    0.8712    2.1813   -0.9400 H   0  0  0  0  0  0  0  0  0  0  0  0
   -4.5899    1.0458    2.5512 H   0  0  0  0  0  0  0  0  0  0  0  0
   -3.0119    1.8754    2.4117 H   0  0  0  0  0  0  0  0  0  0  0  0
   -5.1838    1.8933    0.2542 H   0  0  0  0  0  0  0  0  0  0  0  0
   -4.8572    3.2223    1.3802 H   0  0  0  0  0  0  0  0  0  0  0  0
   -3.6404    2.7494    0.1858 H   0  0  0  0  0  0  0  0  0  0  0  0
   -2.1646   -2.1881   -1.5736 H   0  0  0  0  0  0  0  0  0  0  0  0
   -1.3674   -3.1991   -0.3332 H   0  0  0  0  0  0  0  0  0  0  0  0
   -3.4739   -3.1103    1.0347 H   0  0  0  0  0  0  0  0  0  0  0  0
   -4.2336   -2.1237   -0.2217 H   0  0  0  0  0  0  0  0  0  0  0  0
   -3.7902   -3.8038   -0.5686 H   0  0  0  0  0  0  0  0  0  0  0  0
  1  2  1  0  0  0  0
  2  3  1  0  0  0  0
  3  4  2  0  0  0  0
  4  5  2  0  0  0  0
  4  6  2  0  0  0  0
  6  7  1  0  0  0  0
  7  8  1  0  0  0  0
  4  9  1  0  0  0  0
  9 10  1  0  0  0  0
 10 11  1  0  0  0  0
 11 12  1  0  0  0  0
 12 13  2  0  0  0  0
 12 14  2  0  0  0  0
 14 15  1  0  0  0  0
 15 16  1  0  0  0  0
 12 17  2  0  0  0  0
 17 18  1  0  0  0  0
 18 19  1  0  0  0  0
  1 20  1  0  0  0  0
  1 21  1  0  0  0  0
  1 22  1  0  0  0  0
  2 23  1  0  0  0  0
  2 24  1  0  0  0  0
  7 25  1  0  0  0  0
  7 26  1  0  0  0  0
  8 27  1  0  0  0  0
  8 28  1  0  0  0  0
  8 29  1  0  0  0  0
 10 30  1  0  0  0  0
 10 31  1  0  0  0  0
 15 32  1  0  0  0  0
 15 33  1  0  0  0  0
 16 34  1  0  0  0  0
 16 35  1  0  0  0  0
 16 36  1  0  0  0  0
 18 37  1  0  0  0  0
 18 38  1  0  0  0  0
 19 39  1  0  0  0  0
 19 40  1  0  0  0  0
 19 41  1  0  0  0  0
M  END
