 xtb: 6.7.1 (edcfbbe)
          04092505203D

 41 40  0     0  0            999 V2000
    3.1193    2.2009   -2.0058 C   0  0  0  0  0  0  0  0  0  0  0  0
    2.0057    1.1938   -1.8124 C   0  0  0  0  0  0  0  0  0  0  0  0
    1.4464    1.3024   -0.4787 O   0  0  0  0  0  0  0  0  0  0  0  0
    1.8306    0.3065    0.6831 P   0  0  0  0  0  0  0  0  0  0  0  0
    1.2125    0.8673    2.4491 S   0  0  0  0  0  0  0  0  0  0  0  0
    3.4167    0.2587    0.5337 O   0  0  0  0  0  0  0  0  0  0  0  0
    4.2873   -0.1885    1.5874 C   0  0  0  0  0  0  0  0  0  0  0  0
    4.1043   -1.6555    1.9182 C   0  0  0  0  0  0  0  0  0  0  0  0
    1.2520   -1.6440    0.0180 S   0  0  0  0  0  0  0  0  0  0  0  0
   -0.0416   -2.0227    1.2272 C   0  0  0  0  0  0  0  0  0  0  0  0
   -1.7083   -2.1545    0.5148 S   0  0  0  0  0  0  0  0  0  0  0  0
   -1.8231   -0.3147   -0.5429 P   0  0  0  0  0  0  0  0  0  0  0  0
   -1.1039   -0.3049   -2.3698 S   0  0  0  0  0  0  0  0  0  0  0  0
   -1.1887    0.6892    0.5058 O   0  0  0  0  0  0  0  0  0  0  0  0
   -1.7250    2.0068    0.7721 C   0  0  0  0  0  0  0  0  0  0  0  0
   -1.5736    2.9228   -0.4225 C   0  0  0  0  0  0  0  0  0  0  0  0
   -3.3679    0.0351   -0.4719 O   0  0  0  0  0  0  0  0  0  0  0  0
   -4.3215   -0.4673   -1.4297 C   0  0  0  0  0  0  0  0  0  0  0  0
   -5.4545    0.5335   -1.5363 C   0  0  0  0  0  0  0  0  0  0  0  0
    3.9457    1.9836   -1.3345 H   0  0  0  0  0  0  0  0  0  0  0  0
    3.4659    2.1464   -3.0329 H   0  0  0  0  0  0  0  0  0  0  0  0
    2.7543    3.2040   -1.8029 H   0  0  0  0  0  0  0  0  0  0  0  0
    2.3576    0.1707   -1.9694 H   0  0  0  0  0  0  0  0  0  0  0  0
    1.1667    1.3854   -2.4852 H   0  0  0  0  0  0  0  0  0  0  0  0
    5.2867    0.0121    1.1987 H   0  0  0  0  0  0  0  0  0  0  0  0
    4.1006    0.4297    2.4709 H   0  0  0  0  0  0  0  0  0  0  0  0
    4.1698   -2.2598    1.0169 H   0  0  0  0  0  0  0  0  0  0  0  0
    4.8781   -1.9614    2.6150 H   0  0  0  0  0  0  0  0  0  0  0  0
    3.1316   -1.8153    2.3810 H   0  0  0  0  0  0  0  0  0  0  0  0
   -0.0327   -1.2509    2.0019 H   0  0  0  0  0  0  0  0  0  0  0  0
    0.1665   -3.0053    1.6440 H   0  0  0  0  0  0  0  0  0  0  0  0
   -2.7710    1.8972    1.0619 H   0  0  0  0  0  0  0  0  0  0  0  0
   -1.1347    2.3505    1.6241 H   0  0  0  0  0  0  0  0  0  0  0  0
   -0.5235    3.0136   -0.6902 H   0  0  0  0  0  0  0  0  0  0  0  0
   -2.1157    2.5152   -1.2753 H   0  0  0  0  0  0  0  0  0  0  0  0
   -1.9710    3.9027   -0.1780 H   0  0  0  0  0  0  0  0  0  0  0  0
   -3.8138   -0.6030   -2.3910 H   0  0  0  0  0  0  0  0  0  0  0  0
   -4.6751   -1.4363   -1.0697 H   0  0  0  0  0  0  0  0  0  0  0  0
   -6.1985    0.1516   -2.2275 H   0  0  0  0  0  0  0  0  0  0  0  0
   -5.9118    0.6828   -0.5625 H   0  0  0  0  0  0  0  0  0  0  0  0
   -5.0830    1.4865   -1.9028 H   0  0  0  0  0  0  0  0  0  0  0  0
  1  2  1  0  0  0  0
  2  3  1  0  0  0  0
  3  4  2  0  0  0  0
  4  5  2  0  0  0  0
  4  6  2  0  0  0  0
  6  7  1  0  0  0  0
  7  8  1  0  0  0  0
  4  9  1  0  0  0  0
  9 10  1  0  0  0  0
 10 11  1  0  0  0  0
 11 12  1  0  0  0  0
 12 13  2  0  0  0  0
 12 14  2  0  0  0  0
 14 15  1  0  0  0  0
 15 16  1  0  0  0  0
 12 17  2  0  0  0  0
 17 18  1  0  0  0  0
 18 19  1  0  0  0  0
  1 20  1  0  0  0  0
  1 21  1  0  0  0  0
  1 22  1  0  0  0  0
  2 23  1  0  0  0  0
  2 24  1  0  0  0  0
  7 25  1  0  0  0  0
  7 26  1  0  0  0  0
  8 27  1  0  0  0  0
  8 28  1  0  0  0  0
  8 29  1  0  0  0  0
 10 30  1  0  0  0  0
 10 31  1  0  0  0  0
 15 32  1  0  0  0  0
 15 33  1  0  0  0  0
 16 34  1  0  0  0  0
 16 35  1  0  0  0  0
 16 36  1  0  0  0  0
 18 37  1  0  0  0  0
 18 38  1  0  0  0  0
 19 39  1  0  0  0  0
 19 40  1  0  0  0  0
 19 41  1  0  0  0  0
M  END
