 xtb: 6.7.1 (edcfbbe)
          04092505213D

 41 40  0     0  0            999 V2000
    2.5395    0.2660   -2.9644 C   0  0  0  0  0  0  0  0  0  0  0  0
    2.7258    1.1806   -1.7708 C   0  0  0  0  0  0  0  0  0  0  0  0
    3.1418    0.4316   -0.6143 O   0  0  0  0  0  0  0  0  0  0  0  0
    2.1863   -0.0830    0.5395 P   0  0  0  0  0  0  0  0  0  0  0  0
    1.0522    1.2744    1.3969 S   0  0  0  0  0  0  0  0  0  0  0  0
    3.2196   -0.7600    1.5312 O   0  0  0  0  0  0  0  0  0  0  0  0
    3.8722   -0.0339    2.5925 C   0  0  0  0  0  0  0  0  0  0  0  0
    4.8782    0.9637    2.0587 C   0  0  0  0  0  0  0  0  0  0  0  0
    1.2819   -1.8328   -0.2085 S   0  0  0  0  0  0  0  0  0  0  0  0
   -0.0583   -1.9857    1.0230 C   0  0  0  0  0  0  0  0  0  0  0  0
   -1.7017   -2.1573    0.2777 S   0  0  0  0  0  0  0  0  0  0  0  0
   -2.0599   -0.1489   -0.2901 P   0  0  0  0  0  0  0  0  0  0  0  0
   -0.8323    0.6169   -1.6204 S   0  0  0  0  0  0  0  0  0  0  0  0
   -2.1665    0.5064    1.1432 O   0  0  0  0  0  0  0  0  0  0  0  0
   -2.8872    1.7208    1.4479 C   0  0  0  0  0  0  0  0  0  0  0  0
   -2.3763    2.9085    0.6612 C   0  0  0  0  0  0  0  0  0  0  0  0
   -3.5717   -0.1718   -0.7691 O   0  0  0  0  0  0  0  0  0  0  0  0
   -3.9629   -0.4703   -2.1238 C   0  0  0  0  0  0  0  0  0  0  0  0
   -5.2197    0.3163   -2.4390 C   0  0  0  0  0  0  0  0  0  0  0  0
    1.6964   -0.4019   -2.8012 H   0  0  0  0  0  0  0  0  0  0  0  0
    2.3386    0.8689   -3.8438 H   0  0  0  0  0  0  0  0  0  0  0  0
    3.4361   -0.3261   -3.1234 H   0  0  0  0  0  0  0  0  0  0  0  0
    1.8018    1.7210   -1.5434 H   0  0  0  0  0  0  0  0  0  0  0  0
    3.5344    1.8940   -1.9411 H   0  0  0  0  0  0  0  0  0  0  0  0
    3.1052    0.4725    3.1878 H   0  0  0  0  0  0  0  0  0  0  0  0
    4.3497   -0.8149    3.1854 H   0  0  0  0  0  0  0  0  0  0  0  0
    4.3624    1.7511    1.5106 H   0  0  0  0  0  0  0  0  0  0  0  0
    5.4210    1.4070    2.8876 H   0  0  0  0  0  0  0  0  0  0  0  0
    5.5765    0.4696    1.3885 H   0  0  0  0  0  0  0  0  0  0  0  0
   -0.0483   -1.1030    1.6655 H   0  0  0  0  0  0  0  0  0  0  0  0
    0.1028   -2.8968    1.5923 H   0  0  0  0  0  0  0  0  0  0  0  0
   -3.9467    1.5425    1.2521 H   0  0  0  0  0  0  0  0  0  0  0  0
   -2.7173    1.8505    2.5179 H   0  0  0  0  0  0  0  0  0  0  0  0
   -2.5500    2.7587   -0.4037 H   0  0  0  0  0  0  0  0  0  0  0  0
   -2.8918    3.8069    0.9850 H   0  0  0  0  0  0  0  0  0  0  0  0
   -1.3064    3.0285    0.8228 H   0  0  0  0  0  0  0  0  0  0  0  0
   -3.1412   -0.1970   -2.7949 H   0  0  0  0  0  0  0  0  0  0  0  0
   -4.1380   -1.5465   -2.1870 H   0  0  0  0  0  0  0  0  0  0  0  0
   -5.5493    0.0692   -3.4427 H   0  0  0  0  0  0  0  0  0  0  0  0
   -6.0033    0.0637   -1.7306 H   0  0  0  0  0  0  0  0  0  0  0  0
   -5.0210    1.3832   -2.3815 H   0  0  0  0  0  0  0  0  0  0  0  0
  1  2  1  0  0  0  0
  2  3  1  0  0  0  0
  3  4  2  0  0  0  0
  4  5  2  0  0  0  0
  4  6  2  0  0  0  0
  6  7  1  0  0  0  0
  7  8  1  0  0  0  0
  4  9  1  0  0  0  0
  9 10  1  0  0  0  0
 10 11  1  0  0  0  0
 11 12  1  0  0  0  0
 12 13  2  0  0  0  0
 12 14  2  0  0  0  0
 14 15  1  0  0  0  0
 15 16  1  0  0  0  0
 12 17  2  0  0  0  0
 17 18  1  0  0  0  0
 18 19  1  0  0  0  0
  1 20  1  0  0  0  0
  1 21  1  0  0  0  0
  1 22  1  0  0  0  0
  2 23  1  0  0  0  0
  2 24  1  0  0  0  0
  7 25  1  0  0  0  0
  7 26  1  0  0  0  0
  8 27  1  0  0  0  0
  8 28  1  0  0  0  0
  8 29  1  0  0  0  0
 10 30  1  0  0  0  0
 10 31  1  0  0  0  0
 15 32  1  0  0  0  0
 15 33  1  0  0  0  0
 16 34  1  0  0  0  0
 16 35  1  0  0  0  0
 16 36  1  0  0  0  0
 18 37  1  0  0  0  0
 18 38  1  0  0  0  0
 19 39  1  0  0  0  0
 19 40  1  0  0  0  0
 19 41  1  0  0  0  0
M  END
