 xtb: 6.7.1 (edcfbbe)
          04092505203D

 41 40  0     0  0            999 V2000
    5.2565   -2.1435   -1.6459 C   0  0  0  0  0  0  0  0  0  0  0  0
    4.2086   -1.0513   -1.7201 C   0  0  0  0  0  0  0  0  0  0  0  0
    3.1767   -1.3583   -0.7605 O   0  0  0  0  0  0  0  0  0  0  0  0
    2.2048   -0.2417   -0.1785 P   0  0  0  0  0  0  0  0  0  0  0  0
    3.1231    1.3928    0.4029 S   0  0  0  0  0  0  0  0  0  0  0  0
    1.4302   -1.0743    0.9177 O   0  0  0  0  0  0  0  0  0  0  0  0
    1.8348   -1.1114    2.3067 C   0  0  0  0  0  0  0  0  0  0  0  0
    0.9513   -0.2035    3.1387 C   0  0  0  0  0  0  0  0  0  0  0  0
    0.7463   -0.0424   -1.6880 S   0  0  0  0  0  0  0  0  0  0  0  0
    0.1320    1.5956   -1.1982 C   0  0  0  0  0  0  0  0  0  0  0  0
   -0.6033    1.6201    0.4564 S   0  0  0  0  0  0  0  0  0  0  0  0
   -2.1653    0.2555    0.0584 P   0  0  0  0  0  0  0  0  0  0  0  0
   -3.0107    0.3537   -1.7111 S   0  0  0  0  0  0  0  0  0  0  0  0
   -3.1511    0.4217    1.2932 O   0  0  0  0  0  0  0  0  0  0  0  0
   -4.2441    1.3568    1.2916 C   0  0  0  0  0  0  0  0  0  0  0  0
   -3.7667    2.7942    1.3311 C   0  0  0  0  0  0  0  0  0  0  0  0
   -1.4442   -1.1057    0.4266 O   0  0  0  0  0  0  0  0  0  0  0  0
   -1.8372   -2.3675   -0.1443 C   0  0  0  0  0  0  0  0  0  0  0  0
   -3.1717   -2.8327    0.3996 C   0  0  0  0  0  0  0  0  0  0  0  0
    5.7020   -2.1682   -0.6554 H   0  0  0  0  0  0  0  0  0  0  0  0
    4.8011   -3.1079   -1.8515 H   0  0  0  0  0  0  0  0  0  0  0  0
    6.0291   -1.9453   -2.3814 H   0  0  0  0  0  0  0  0  0  0  0  0
    3.7476   -1.0056   -2.7102 H   0  0  0  0  0  0  0  0  0  0  0  0
    4.6323   -0.0714   -1.4748 H   0  0  0  0  0  0  0  0  0  0  0  0
    1.7246   -2.1567    2.5992 H   0  0  0  0  0  0  0  0  0  0  0  0
    2.8843   -0.8144    2.3852 H   0  0  0  0  0  0  0  0  0  0  0  0
   -0.0953   -0.4429    2.9659 H   0  0  0  0  0  0  0  0  0  0  0  0
    1.1856   -0.3403    4.1895 H   0  0  0  0  0  0  0  0  0  0  0  0
    1.1186    0.8370    2.8676 H   0  0  0  0  0  0  0  0  0  0  0  0
   -0.6158    1.8729   -1.9404 H   0  0  0  0  0  0  0  0  0  0  0  0
    0.9586    2.3049   -1.1781 H   0  0  0  0  0  0  0  0  0  0  0  0
   -4.8502    1.1777    0.3976 H   0  0  0  0  0  0  0  0  0  0  0  0
   -4.8125    1.0960    2.1853 H   0  0  0  0  0  0  0  0  0  0  0  0
   -3.2598    3.0453    0.4004 H   0  0  0  0  0  0  0  0  0  0  0  0
   -4.6202    3.4528    1.4556 H   0  0  0  0  0  0  0  0  0  0  0  0
   -3.0735    2.9399    2.1558 H   0  0  0  0  0  0  0  0  0  0  0  0
   -1.8768   -2.2594   -1.2335 H   0  0  0  0  0  0  0  0  0  0  0  0
   -1.0244   -3.0428    0.1273 H   0  0  0  0  0  0  0  0  0  0  0  0
   -3.1462   -2.8622    1.4857 H   0  0  0  0  0  0  0  0  0  0  0  0
   -3.9563   -2.1457    0.0842 H   0  0  0  0  0  0  0  0  0  0  0  0
   -3.3932   -3.8228    0.0140 H   0  0  0  0  0  0  0  0  0  0  0  0
  1  2  1  0  0  0  0
  2  3  1  0  0  0  0
  3  4  2  0  0  0  0
  4  5  2  0  0  0  0
  4  6  2  0  0  0  0
  6  7  1  0  0  0  0
  7  8  1  0  0  0  0
  4  9  1  0  0  0  0
  9 10  1  0  0  0  0
 10 11  1  0  0  0  0
 11 12  1  0  0  0  0
 12 13  2  0  0  0  0
 12 14  2  0  0  0  0
 14 15  1  0  0  0  0
 15 16  1  0  0  0  0
 12 17  2  0  0  0  0
 17 18  1  0  0  0  0
 18 19  1  0  0  0  0
  1 20  1  0  0  0  0
  1 21  1  0  0  0  0
  1 22  1  0  0  0  0
  2 23  1  0  0  0  0
  2 24  1  0  0  0  0
  7 25  1  0  0  0  0
  7 26  1  0  0  0  0
  8 27  1  0  0  0  0
  8 28  1  0  0  0  0
  8 29  1  0  0  0  0
 10 30  1  0  0  0  0
 10 31  1  0  0  0  0
 15 32  1  0  0  0  0
 15 33  1  0  0  0  0
 16 34  1  0  0  0  0
 16 35  1  0  0  0  0
 16 36  1  0  0  0  0
 18 37  1  0  0  0  0
 18 38  1  0  0  0  0
 19 39  1  0  0  0  0
 19 40  1  0  0  0  0
 19 41  1  0  0  0  0
M  END
