 xtb: 6.7.1 (edcfbbe)
          04092505213D

 41 40  0     0  0            999 V2000
    4.5276    1.2081   -2.2266 C   0  0  0  0  0  0  0  0  0  0  0  0
    4.9108    0.8919   -0.7953 C   0  0  0  0  0  0  0  0  0  0  0  0
    4.1058   -0.1651   -0.2441 O   0  0  0  0  0  0  0  0  0  0  0  0
    2.5579    0.0158    0.0758 P   0  0  0  0  0  0  0  0  0  0  0  0
    2.1090    1.7756    0.8280 S   0  0  0  0  0  0  0  0  0  0  0  0
    2.2786   -1.2625    0.9653 O   0  0  0  0  0  0  0  0  0  0  0  0
    2.6224   -1.3380    2.3676 C   0  0  0  0  0  0  0  0  0  0  0  0
    1.4481   -0.9240    3.2325 C   0  0  0  0  0  0  0  0  0  0  0  0
    1.5311   -0.5617   -1.6686 S   0  0  0  0  0  0  0  0  0  0  0  0
   -0.0454    0.1784   -1.1996 C   0  0  0  0  0  0  0  0  0  0  0  0
   -0.7990   -0.7461    0.1871 S   0  0  0  0  0  0  0  0  0  0  0  0
   -2.7741   -0.0163   -0.1083 P   0  0  0  0  0  0  0  0  0  0  0  0
   -4.1358   -0.6448    1.1487 S   0  0  0  0  0  0  0  0  0  0  0  0
   -3.0693   -0.2754   -1.6486 O   0  0  0  0  0  0  0  0  0  0  0  0
   -3.7119   -1.4828   -2.0964 C   0  0  0  0  0  0  0  0  0  0  0  0
   -2.8108   -2.6949   -1.9614 C   0  0  0  0  0  0  0  0  0  0  0  0
   -2.5919    1.5572   -0.2375 O   0  0  0  0  0  0  0  0  0  0  0  0
   -2.7490    2.4262    0.8983 C   0  0  0  0  0  0  0  0  0  0  0  0
   -1.6686    2.2168    1.9409 C   0  0  0  0  0  0  0  0  0  0  0  0
    3.5297    1.6434   -2.2582 H   0  0  0  0  0  0  0  0  0  0  0  0
    5.2355    1.9197   -2.6392 H   0  0  0  0  0  0  0  0  0  0  0  0
    4.5325    0.3020   -2.8271 H   0  0  0  0  0  0  0  0  0  0  0  0
    4.8006    1.7781   -0.1616 H   0  0  0  0  0  0  0  0  0  0  0  0
    5.9298    0.5094   -0.7246 H   0  0  0  0  0  0  0  0  0  0  0  0
    2.8814   -2.3863    2.5241 H   0  0  0  0  0  0  0  0  0  0  0  0
    3.4970   -0.7105    2.5602 H   0  0  0  0  0  0  0  0  0  0  0  0
    1.2198    0.1292    3.0838 H   0  0  0  0  0  0  0  0  0  0  0  0
    0.5704   -1.5091    2.9704 H   0  0  0  0  0  0  0  0  0  0  0  0
    1.6950   -1.0884    4.2764 H   0  0  0  0  0  0  0  0  0  0  0  0
   -0.7017    0.1319   -2.0651 H   0  0  0  0  0  0  0  0  0  0  0  0
    0.1255    1.2092   -0.8861 H   0  0  0  0  0  0  0  0  0  0  0  0
   -4.6308   -1.6223   -1.5182 H   0  0  0  0  0  0  0  0  0  0  0  0
   -3.9584   -1.2770   -3.1390 H   0  0  0  0  0  0  0  0  0  0  0  0
   -3.3075   -3.5585   -2.3920 H   0  0  0  0  0  0  0  0  0  0  0  0
   -1.8668   -2.5322   -2.4764 H   0  0  0  0  0  0  0  0  0  0  0  0
   -2.6094   -2.8933   -0.9090 H   0  0  0  0  0  0  0  0  0  0  0  0
   -2.7065    3.4285    0.4699 H   0  0  0  0  0  0  0  0  0  0  0  0
   -3.7367    2.2491    1.3355 H   0  0  0  0  0  0  0  0  0  0  0  0
   -0.6777    2.3486    1.5102 H   0  0  0  0  0  0  0  0  0  0  0  0
   -1.8002    2.9363    2.7427 H   0  0  0  0  0  0  0  0  0  0  0  0
   -1.7432    1.2114    2.3555 H   0  0  0  0  0  0  0  0  0  0  0  0
  1  2  1  0  0  0  0
  2  3  1  0  0  0  0
  3  4  2  0  0  0  0
  4  5  2  0  0  0  0
  4  6  2  0  0  0  0
  6  7  1  0  0  0  0
  7  8  1  0  0  0  0
  4  9  1  0  0  0  0
  9 10  1  0  0  0  0
 10 11  1  0  0  0  0
 11 12  1  0  0  0  0
 12 13  2  0  0  0  0
 12 14  2  0  0  0  0
 14 15  1  0  0  0  0
 15 16  1  0  0  0  0
 12 17  2  0  0  0  0
 17 18  1  0  0  0  0
 18 19  1  0  0  0  0
  1 20  1  0  0  0  0
  1 21  1  0  0  0  0
  1 22  1  0  0  0  0
  2 23  1  0  0  0  0
  2 24  1  0  0  0  0
  7 25  1  0  0  0  0
  7 26  1  0  0  0  0
  8 27  1  0  0  0  0
  8 28  1  0  0  0  0
  8 29  1  0  0  0  0
 10 30  1  0  0  0  0
 10 31  1  0  0  0  0
 15 32  1  0  0  0  0
 15 33  1  0  0  0  0
 16 34  1  0  0  0  0
 16 35  1  0  0  0  0
 16 36  1  0  0  0  0
 18 37  1  0  0  0  0
 18 38  1  0  0  0  0
 19 39  1  0  0  0  0
 19 40  1  0  0  0  0
 19 41  1  0  0  0  0
M  END
