 xtb: 6.7.1 (edcfbbe)
          04092505203D

 41 40  0     0  0            999 V2000
    1.2936    3.3664    1.0941 C   0  0  0  0  0  0  0  0  0  0  0  0
    2.0156    2.0844    0.7359 C   0  0  0  0  0  0  0  0  0  0  0  0
    1.3202    0.9923    1.3837 O   0  0  0  0  0  0  0  0  0  0  0  0
    1.5961   -0.5205    1.0360 P   0  0  0  0  0  0  0  0  0  0  0  0
    0.6266   -1.7110    2.2481 S   0  0  0  0  0  0  0  0  0  0  0  0
    3.1892   -0.5291    1.1468 O   0  0  0  0  0  0  0  0  0  0  0  0
    4.0683   -1.5490    0.6395 C   0  0  0  0  0  0  0  0  0  0  0  0
    3.7413   -2.9307    1.1664 C   0  0  0  0  0  0  0  0  0  0  0  0
    1.3165   -0.8504   -1.0518 S   0  0  0  0  0  0  0  0  0  0  0  0
   -0.1607   -1.8941   -1.0126 C   0  0  0  0  0  0  0  0  0  0  0  0
   -1.6419   -1.1677   -1.7844 S   0  0  0  0  0  0  0  0  0  0  0  0
   -1.8087    0.6591   -0.7202 P   0  0  0  0  0  0  0  0  0  0  0  0
   -3.5169    1.5951   -0.9024 S   0  0  0  0  0  0  0  0  0  0  0  0
   -0.5365    1.5258   -1.1195 O   0  0  0  0  0  0  0  0  0  0  0  0
   -0.5441    2.3907   -2.2709 C   0  0  0  0  0  0  0  0  0  0  0  0
   -0.4145    1.6144   -3.5668 C   0  0  0  0  0  0  0  0  0  0  0  0
   -1.3407    0.3018    0.7586 O   0  0  0  0  0  0  0  0  0  0  0  0
   -2.3126    0.0910    1.7992 C   0  0  0  0  0  0  0  0  0  0  0  0
   -3.0238   -1.2389    1.6514 C   0  0  0  0  0  0  0  0  0  0  0  0
    1.2908    3.5031    2.1718 H   0  0  0  0  0  0  0  0  0  0  0  0
    1.7976    4.2057    0.6255 H   0  0  0  0  0  0  0  0  0  0  0  0
    0.2639    3.3226    0.7479 H   0  0  0  0  0  0  0  0  0  0  0  0
    3.0466    2.0896    1.0958 H   0  0  0  0  0  0  0  0  0  0  0  0
    2.0083    1.9066   -0.3433 H   0  0  0  0  0  0  0  0  0  0  0  0
    4.0201   -1.5296   -0.4528 H   0  0  0  0  0  0  0  0  0  0  0  0
    5.0550   -1.2214    0.9721 H   0  0  0  0  0  0  0  0  0  0  0  0
    3.7175   -2.9269    2.2536 H   0  0  0  0  0  0  0  0  0  0  0  0
    2.7671   -3.2548    0.8042 H   0  0  0  0  0  0  0  0  0  0  0  0
    4.4967   -3.6318    0.8263 H   0  0  0  0  0  0  0  0  0  0  0  0
   -0.3664   -2.1533    0.0296 H   0  0  0  0  0  0  0  0  0  0  0  0
    0.0422   -2.7826   -1.6057 H   0  0  0  0  0  0  0  0  0  0  0  0
   -1.4694    2.9763   -2.2581 H   0  0  0  0  0  0  0  0  0  0  0  0
    0.3109    3.0502   -2.1123 H   0  0  0  0  0  0  0  0  0  0  0  0
    0.4466    0.9511   -3.5251 H   0  0  0  0  0  0  0  0  0  0  0  0
   -1.3098    1.0192   -3.7408 H   0  0  0  0  0  0  0  0  0  0  0  0
   -0.2914    2.3127   -4.3885 H   0  0  0  0  0  0  0  0  0  0  0  0
   -1.7280    0.1308    2.7198 H   0  0  0  0  0  0  0  0  0  0  0  0
   -3.0289    0.9179    1.7740 H   0  0  0  0  0  0  0  0  0  0  0  0
   -2.3096   -2.0576    1.7028 H   0  0  0  0  0  0  0  0  0  0  0  0
   -3.7424   -1.3479    2.4572 H   0  0  0  0  0  0  0  0  0  0  0  0
   -3.5518   -1.2753    0.6984 H   0  0  0  0  0  0  0  0  0  0  0  0
  1  2  1  0  0  0  0
  2  3  1  0  0  0  0
  3  4  2  0  0  0  0
  4  5  2  0  0  0  0
  4  6  2  0  0  0  0
  6  7  1  0  0  0  0
  7  8  1  0  0  0  0
  4  9  1  0  0  0  0
  9 10  1  0  0  0  0
 10 11  1  0  0  0  0
 11 12  1  0  0  0  0
 12 13  2  0  0  0  0
 12 14  2  0  0  0  0
 14 15  1  0  0  0  0
 15 16  1  0  0  0  0
 12 17  1  0  0  0  0
 17 18  1  0  0  0  0
 18 19  1  0  0  0  0
  1 20  1  0  0  0  0
  1 21  1  0  0  0  0
  1 22  1  0  0  0  0
  2 23  1  0  0  0  0
  2 24  1  0  0  0  0
  7 25  1  0  0  0  0
  7 26  1  0  0  0  0
  8 27  1  0  0  0  0
  8 28  1  0  0  0  0
  8 29  1  0  0  0  0
 10 30  1  0  0  0  0
 10 31  1  0  0  0  0
 15 32  1  0  0  0  0
 15 33  1  0  0  0  0
 16 34  1  0  0  0  0
 16 35  1  0  0  0  0
 16 36  1  0  0  0  0
 18 37  1  0  0  0  0
 18 38  1  0  0  0  0
 19 39  1  0  0  0  0
 19 40  1  0  0  0  0
 19 41  1  0  0  0  0
M  END
