 xtb: 6.7.1 (edcfbbe)
          04092505203D

 41 40  0     0  0            999 V2000
    4.9707    1.1342    0.1326 C   0  0  0  0  0  0  0  0  0  0  0  0
    3.7053    1.4330   -0.6426 C   0  0  0  0  0  0  0  0  0  0  0  0
    2.9119    0.2437   -0.8418 O   0  0  0  0  0  0  0  0  0  0  0  0
    2.1401   -0.4512    0.3515 P   0  0  0  0  0  0  0  0  0  0  0  0
    1.5617    0.7173    1.8210 S   0  0  0  0  0  0  0  0  0  0  0  0
    3.1699   -1.5716    0.8192 O   0  0  0  0  0  0  0  0  0  0  0  0
    3.0103   -2.2822    2.0562 C   0  0  0  0  0  0  0  0  0  0  0  0
    1.8187   -3.2172    2.0114 C   0  0  0  0  0  0  0  0  0  0  0  0
    0.7273   -1.5638   -0.7826 S   0  0  0  0  0  0  0  0  0  0  0  0
    0.2985   -0.3391   -2.0524 C   0  0  0  0  0  0  0  0  0  0  0  0
   -0.2515    1.2466   -1.3680 S   0  0  0  0  0  0  0  0  0  0  0  0
   -2.0069    0.5122   -0.4461 P   0  0  0  0  0  0  0  0  0  0  0  0
   -2.9541   -0.8931   -1.4372 S   0  0  0  0  0  0  0  0  0  0  0  0
   -2.8087    1.8420   -0.1180 O   0  0  0  0  0  0  0  0  0  0  0  0
   -3.4365    2.6463   -1.1379 C   0  0  0  0  0  0  0  0  0  0  0  0
   -4.8770    2.2251   -1.3562 C   0  0  0  0  0  0  0  0  0  0  0  0
   -1.4781    0.1114    0.9859 O   0  0  0  0  0  0  0  0  0  0  0  0
   -2.1221   -0.8866    1.8017 C   0  0  0  0  0  0  0  0  0  0  0  0
   -3.4812   -0.4194    2.2754 C   0  0  0  0  0  0  0  0  0  0  0  0
    5.5861    2.0273    0.1754 H   0  0  0  0  0  0  0  0  0  0  0  0
    4.7180    0.8286    1.1471 H   0  0  0  0  0  0  0  0  0  0  0  0
    5.5250    0.3326   -0.3482 H   0  0  0  0  0  0  0  0  0  0  0  0
    3.9190    1.7780   -1.6550 H   0  0  0  0  0  0  0  0  0  0  0  0
    3.0935    2.1747   -0.1188 H   0  0  0  0  0  0  0  0  0  0  0  0
    3.9483   -2.8257    2.1750 H   0  0  0  0  0  0  0  0  0  0  0  0
    2.8961   -1.5506    2.8636 H   0  0  0  0  0  0  0  0  0  0  0  0
    0.9027   -2.6377    1.8875 H   0  0  0  0  0  0  0  0  0  0  0  0
    1.9069   -3.9042    1.1737 H   0  0  0  0  0  0  0  0  0  0  0  0
    1.7596   -3.7789    2.9379 H   0  0  0  0  0  0  0  0  0  0  0  0
   -0.5126   -0.7864   -2.6289 H   0  0  0  0  0  0  0  0  0  0  0  0
    1.1648   -0.1343   -2.6753 H   0  0  0  0  0  0  0  0  0  0  0  0
   -3.3738    3.6665   -0.7546 H   0  0  0  0  0  0  0  0  0  0  0  0
   -2.8589    2.5696   -2.0639 H   0  0  0  0  0  0  0  0  0  0  0  0
   -4.9204    1.2036   -1.7275 H   0  0  0  0  0  0  0  0  0  0  0  0
   -5.4286    2.2830   -0.4220 H   0  0  0  0  0  0  0  0  0  0  0  0
   -5.3348    2.8860   -2.0850 H   0  0  0  0  0  0  0  0  0  0  0  0
   -2.2055   -1.8102    1.2189 H   0  0  0  0  0  0  0  0  0  0  0  0
   -1.4275   -1.0293    2.6315 H   0  0  0  0  0  0  0  0  0  0  0  0
   -4.1428   -0.2930    1.4188 H   0  0  0  0  0  0  0  0  0  0  0  0
   -3.9051   -1.1601    2.9460 H   0  0  0  0  0  0  0  0  0  0  0  0
   -3.3891    0.5322    2.7926 H   0  0  0  0  0  0  0  0  0  0  0  0
  1  2  1  0  0  0  0
  2  3  1  0  0  0  0
  3  4  2  0  0  0  0
  4  5  2  0  0  0  0
  4  6  2  0  0  0  0
  6  7  1  0  0  0  0
  7  8  1  0  0  0  0
  4  9  1  0  0  0  0
  9 10  1  0  0  0  0
 10 11  1  0  0  0  0
 11 12  1  0  0  0  0
 12 13  2  0  0  0  0
 12 14  2  0  0  0  0
 14 15  1  0  0  0  0
 15 16  1  0  0  0  0
 12 17  2  0  0  0  0
 17 18  1  0  0  0  0
 18 19  1  0  0  0  0
  1 20  1  0  0  0  0
  1 21  1  0  0  0  0
  1 22  1  0  0  0  0
  2 23  1  0  0  0  0
  2 24  1  0  0  0  0
  7 25  1  0  0  0  0
  7 26  1  0  0  0  0
  8 27  1  0  0  0  0
  8 28  1  0  0  0  0
  8 29  1  0  0  0  0
 10 30  1  0  0  0  0
 10 31  1  0  0  0  0
 15 32  1  0  0  0  0
 15 33  1  0  0  0  0
 16 34  1  0  0  0  0
 16 35  1  0  0  0  0
 16 36  1  0  0  0  0
 18 37  1  0  0  0  0
 18 38  1  0  0  0  0
 19 39  1  0  0  0  0
 19 40  1  0  0  0  0
 19 41  1  0  0  0  0
M  END
