 xtb: 6.7.1 (edcfbbe)
          04092507313D

 38 37  0     0  0            999 V2000
    3.0633   -1.9271    1.5828 C   0  0  0  0  0  0  0  0  0  0  0  0
    2.8456   -2.5056    0.1943 C   0  0  0  0  0  0  0  0  0  0  0  0
    2.6635   -1.4466   -0.7663 O   0  0  0  0  0  0  0  0  0  0  0  0
    1.4555   -1.0936   -1.1254 C   0  0  0  0  0  0  0  0  0  0  0  0
    0.4333   -1.6269   -0.7240 O   0  0  0  0  0  0  0  0  0  0  0  0
    1.4645    0.0428   -2.1205 C   0  0  0  0  0  0  0  0  0  0  0  0
    0.3813    1.0636   -1.7882 C   0  0  0  0  0  0  0  0  0  0  0  0
    0.3558    1.8447   -2.5534 H   0  0  0  0  0  0  0  0  0  0  0  0
    0.5542    1.7388   -0.4379 C   0  0  0  0  0  0  0  0  0  0  0  0
   -0.3760    2.2312    0.1668 O   0  0  0  0  0  0  0  0  0  0  0  0
    1.7988    1.7226   -0.0340 O   0  0  0  0  0  0  0  0  0  0  0  0
    2.1163    2.3346    1.2338 C   0  0  0  0  0  0  0  0  0  0  0  0
    2.2589    3.8406    1.0956 C   0  0  0  0  0  0  0  0  0  0  0  0
   -1.3104    0.3550   -1.8385 S   0  0  0  0  0  0  0  0  0  0  0  0
   -1.6104   -0.3173    0.1412 P   0  0  0  0  0  0  0  0  0  0  0  0
   -0.4372   -0.3655    1.7264 S   0  0  0  0  0  0  0  0  0  0  0  0
   -2.8700    0.6459    0.3659 O   0  0  0  0  0  0  0  0  0  0  0  0
   -3.6052    0.6661    1.5912 C   0  0  0  0  0  0  0  0  0  0  0  0
   -2.3990   -1.6984   -0.0498 O   0  0  0  0  0  0  0  0  0  0  0  0
   -1.8713   -3.0048    0.1712 C   0  0  0  0  0  0  0  0  0  0  0  0
    3.2567   -2.7343    2.2813 H   0  0  0  0  0  0  0  0  0  0  0  0
    3.9103   -1.2474    1.5753 H   0  0  0  0  0  0  0  0  0  0  0  0
    2.1768   -1.3860    1.9102 H   0  0  0  0  0  0  0  0  0  0  0  0
    1.9663   -3.1550    0.1757 H   0  0  0  0  0  0  0  0  0  0  0  0
    3.7270   -3.0459   -0.1529 H   0  0  0  0  0  0  0  0  0  0  0  0
    1.2572   -0.3715   -3.1090 H   0  0  0  0  0  0  0  0  0  0  0  0
    2.4478    0.5116   -2.1144 H   0  0  0  0  0  0  0  0  0  0  0  0
    1.3310    2.0737    1.9494 H   0  0  0  0  0  0  0  0  0  0  0  0
    3.0570    1.8664    1.5228 H   0  0  0  0  0  0  0  0  0  0  0  0
    3.0055    4.0788    0.3431 H   0  0  0  0  0  0  0  0  0  0  0  0
    1.3073    4.2824    0.8084 H   0  0  0  0  0  0  0  0  0  0  0  0
    2.5648    4.2563    2.0498 H   0  0  0  0  0  0  0  0  0  0  0  0
   -4.2518   -0.2094    1.6502 H   0  0  0  0  0  0  0  0  0  0  0  0
   -4.1927    1.5802    1.5659 H   0  0  0  0  0  0  0  0  0  0  0  0
   -2.9196    0.6790    2.4417 H   0  0  0  0  0  0  0  0  0  0  0  0
   -1.1518   -2.9822    0.9912 H   0  0  0  0  0  0  0  0  0  0  0  0
   -1.3848   -3.3607   -0.7346 H   0  0  0  0  0  0  0  0  0  0  0  0
   -2.7247   -3.6289    0.4263 H   0  0  0  0  0  0  0  0  0  0  0  0
  1  2  1  0  0  0  0
  2  3  1  0  0  0  0
  3  4  4  0  0  0  0
  4  5  2  0  0  0  0
  4  6  1  0  0  0  0
  6  7  1  0  0  0  0
  7  8  1  0  0  0  0
  7  9  1  0  0  0  0
  9 10  2  0  0  0  0
  9 11  4  0  0  0  0
 11 12  1  0  0  0  0
 12 13  1  0  0  0  0
  7 14  1  0  0  0  0
 14 15  1  0  0  0  0
 15 16  2  0  0  0  0
 15 17  1  0  0  0  0
 17 18  1  0  0  0  0
 15 19  1  0  0  0  0
 19 20  1  0  0  0  0
  1 21  1  0  0  0  0
  1 22  1  0  0  0  0
  1 23  1  0  0  0  0
  2 24  1  0  0  0  0
  2 25  1  0  0  0  0
  6 26  1  0  0  0  0
  6 27  1  0  0  0  0
 12 28  1  0  0  0  0
 12 29  1  0  0  0  0
 13 30  1  0  0  0  0
 13 31  1  0  0  0  0
 13 32  1  0  0  0  0
 18 33  1  0  0  0  0
 18 34  1  0  0  0  0
 18 35  1  0  0  0  0
 20 36  1  0  0  0  0
 20 37  1  0  0  0  0
 20 38  1  0  0  0  0
M  END
