 xtb: 6.7.1 (edcfbbe)
          04092507313D

 38 37  0     0  0            999 V2000
    5.4146   -1.2915   -0.4264 C   0  0  0  0  0  0  0  0  0  0  0  0
    4.7236   -1.8536   -1.6583 C   0  0  0  0  0  0  0  0  0  0  0  0
    3.3644   -2.2099   -1.3414 O   0  0  0  0  0  0  0  0  0  0  0  0
    2.4039   -1.3512   -1.6117 C   0  0  0  0  0  0  0  0  0  0  0  0
    2.5538   -0.2986   -2.1941 O   0  0  0  0  0  0  0  0  0  0  0  0
    1.0538   -1.8727   -1.1491 C   0  0  0  0  0  0  0  0  0  0  0  0
    0.2766   -0.7197   -0.5319 C   0  0  0  0  0  0  0  0  0  0  0  0
    0.1566    0.0882   -1.2690 H   0  0  0  0  0  0  0  0  0  0  0  0
    1.0329   -0.1120    0.6339 C   0  0  0  0  0  0  0  0  0  0  0  0
    2.2313   -0.2077    0.7641 O   0  0  0  0  0  0  0  0  0  0  0  0
    0.2303    0.5330    1.4546 O   0  0  0  0  0  0  0  0  0  0  0  0
    0.8111    1.2705    2.5497 C   0  0  0  0  0  0  0  0  0  0  0  0
    1.2075    2.6674    2.1048 C   0  0  0  0  0  0  0  0  0  0  0  0
   -1.3910   -1.2390   -0.0220 S   0  0  0  0  0  0  0  0  0  0  0  0
   -2.2704    0.6923    0.1919 P   0  0  0  0  0  0  0  0  0  0  0  0
   -1.4385    2.1591   -0.8028 S   0  0  0  0  0  0  0  0  0  0  0  0
   -3.7883    0.3967   -0.2285 O   0  0  0  0  0  0  0  0  0  0  0  0
   -4.1418    0.1092   -1.5850 C   0  0  0  0  0  0  0  0  0  0  0  0
   -2.4685    0.9967    1.7280 O   0  0  0  0  0  0  0  0  0  0  0  0
   -3.1623    0.0835    2.6020 C   0  0  0  0  0  0  0  0  0  0  0  0
    6.4303   -1.0053   -0.6779 H   0  0  0  0  0  0  0  0  0  0  0  0
    4.8723   -0.4189   -0.0685 H   0  0  0  0  0  0  0  0  0  0  0  0
    5.4319   -2.0357    0.3644 H   0  0  0  0  0  0  0  0  0  0  0  0
    5.1898   -2.7819   -1.9905 H   0  0  0  0  0  0  0  0  0  0  0  0
    4.7109   -1.1198   -2.4693 H   0  0  0  0  0  0  0  0  0  0  0  0
    1.2090   -2.6774   -0.4317 H   0  0  0  0  0  0  0  0  0  0  0  0
    0.5118   -2.2572   -2.0141 H   0  0  0  0  0  0  0  0  0  0  0  0
    0.0236    1.3023    3.3025 H   0  0  0  0  0  0  0  0  0  0  0  0
    1.6777    0.7122    2.9142 H   0  0  0  0  0  0  0  0  0  0  0  0
    1.5703    3.2290    2.9589 H   0  0  0  0  0  0  0  0  0  0  0  0
    1.9919    2.6151    1.3524 H   0  0  0  0  0  0  0  0  0  0  0  0
    0.3492    3.1786    1.6745 H   0  0  0  0  0  0  0  0  0  0  0  0
   -3.8001   -0.8904   -1.8530 H   0  0  0  0  0  0  0  0  0  0  0  0
   -3.6975    0.8476   -2.2544 H   0  0  0  0  0  0  0  0  0  0  0  0
   -5.2266    0.1670   -1.6240 H   0  0  0  0  0  0  0  0  0  0  0  0
   -4.2050    0.0028    2.3022 H   0  0  0  0  0  0  0  0  0  0  0  0
   -3.0795    0.5200    3.5939 H   0  0  0  0  0  0  0  0  0  0  0  0
   -2.6873   -0.8970    2.5685 H   0  0  0  0  0  0  0  0  0  0  0  0
  1  2  1  0  0  0  0
  2  3  1  0  0  0  0
  3  4  1  0  0  0  0
  4  5  2  0  0  0  0
  4  6  1  0  0  0  0
  6  7  1  0  0  0  0
  7  8  1  0  0  0  0
  7  9  1  0  0  0  0
  9 10  2  0  0  0  0
  9 11  1  0  0  0  0
 11 12  1  0  0  0  0
 12 13  1  0  0  0  0
  7 14  1  0  0  0  0
 14 15  1  0  0  0  0
 15 16  2  0  0  0  0
 15 17  1  0  0  0  0
 17 18  1  0  0  0  0
 15 19  2  0  0  0  0
 19 20  1  0  0  0  0
  1 21  1  0  0  0  0
  1 22  1  0  0  0  0
  1 23  1  0  0  0  0
  2 24  1  0  0  0  0
  2 25  1  0  0  0  0
  6 26  1  0  0  0  0
  6 27  1  0  0  0  0
 12 28  1  0  0  0  0
 12 29  1  0  0  0  0
 13 30  1  0  0  0  0
 13 31  1  0  0  0  0
 13 32  1  0  0  0  0
 18 33  1  0  0  0  0
 18 34  1  0  0  0  0
 18 35  1  0  0  0  0
 20 36  1  0  0  0  0
 20 37  1  0  0  0  0
 20 38  1  0  0  0  0
M  END
