 xtb: 6.7.1 (edcfbbe)
          04092505213D

 41 40  0     0  0            999 V2000
    2.8551   -0.0814   -2.7581 C   0  0  0  0  0  0  0  0  0  0  0  0
    3.0632    0.9389   -1.6556 C   0  0  0  0  0  0  0  0  0  0  0  0
    3.5828    0.3094   -0.4704 O   0  0  0  0  0  0  0  0  0  0  0  0
    2.7136   -0.0423    0.8044 P   0  0  0  0  0  0  0  0  0  0  0  0
    1.7063    1.4418    1.6044 S   0  0  0  0  0  0  0  0  0  0  0  0
    3.9248   -0.5960    1.6527 O   0  0  0  0  0  0  0  0  0  0  0  0
    3.8721   -0.7034    3.0872 C   0  0  0  0  0  0  0  0  0  0  0  0
    2.8948   -1.7652    3.5511 C   0  0  0  0  0  0  0  0  0  0  0  0
    1.5559   -1.7738    0.3255 S   0  0  0  0  0  0  0  0  0  0  0  0
   -0.0813   -1.0264    0.3556 C   0  0  0  0  0  0  0  0  0  0  0  0
   -0.3947   -0.0838   -1.1912 S   0  0  0  0  0  0  0  0  0  0  0  0
   -2.4733    0.1482   -0.9649 P   0  0  0  0  0  0  0  0  0  0  0  0
   -3.4337    1.1191   -2.3685 S   0  0  0  0  0  0  0  0  0  0  0  0
   -2.6793    0.7110    0.5171 O   0  0  0  0  0  0  0  0  0  0  0  0
   -2.8611    2.1113    0.7763 C   0  0  0  0  0  0  0  0  0  0  0  0
   -1.6195    2.9190    0.4577 C   0  0  0  0  0  0  0  0  0  0  0  0
   -2.8600   -1.3813   -0.7772 O   0  0  0  0  0  0  0  0  0  0  0  0
   -4.2035   -1.8567   -1.0013 C   0  0  0  0  0  0  0  0  0  0  0  0
   -5.1688   -1.3370    0.0430 C   0  0  0  0  0  0  0  0  0  0  0  0
    2.5660    0.4345   -3.6678 H   0  0  0  0  0  0  0  0  0  0  0  0
    3.7756   -0.6318   -2.9302 H   0  0  0  0  0  0  0  0  0  0  0  0
    2.0673   -0.7813   -2.4896 H   0  0  0  0  0  0  0  0  0  0  0  0
    2.1301    1.4602   -1.4175 H   0  0  0  0  0  0  0  0  0  0  0  0
    3.8232    1.6708   -1.9367 H   0  0  0  0  0  0  0  0  0  0  0  0
    4.8970   -0.9524    3.3655 H   0  0  0  0  0  0  0  0  0  0  0  0
    3.6043    0.2745    3.5005 H   0  0  0  0  0  0  0  0  0  0  0  0
    3.0927   -2.7065    3.0449 H   0  0  0  0  0  0  0  0  0  0  0  0
    2.9988   -1.9025    4.6228 H   0  0  0  0  0  0  0  0  0  0  0  0
    1.8739   -1.4555    3.3330 H   0  0  0  0  0  0  0  0  0  0  0  0
   -0.1515   -0.3376    1.1985 H   0  0  0  0  0  0  0  0  0  0  0  0
   -0.8013   -1.8361    0.4244 H   0  0  0  0  0  0  0  0  0  0  0  0
   -3.7057    2.4661    0.1767 H   0  0  0  0  0  0  0  0  0  0  0  0
   -3.1099    2.1554    1.8373 H   0  0  0  0  0  0  0  0  0  0  0  0
   -1.7909    3.9598    0.7123 H   0  0  0  0  0  0  0  0  0  0  0  0
   -0.7614    2.5550    1.0192 H   0  0  0  0  0  0  0  0  0  0  0  0
   -1.3980    2.8500   -0.6077 H   0  0  0  0  0  0  0  0  0  0  0  0
   -4.5164   -1.5478   -2.0036 H   0  0  0  0  0  0  0  0  0  0  0  0
   -4.1054   -2.9423   -0.9606 H   0  0  0  0  0  0  0  0  0  0  0  0
   -6.1382   -1.8040   -0.1001 H   0  0  0  0  0  0  0  0  0  0  0  0
   -4.8023   -1.5607    1.0415 H   0  0  0  0  0  0  0  0  0  0  0  0
   -5.2786   -0.2581   -0.0593 H   0  0  0  0  0  0  0  0  0  0  0  0
  1  2  1  0  0  0  0
  2  3  1  0  0  0  0
  3  4  2  0  0  0  0
  4  5  2  0  0  0  0
  4  6  2  0  0  0  0
  6  7  1  0  0  0  0
  7  8  1  0  0  0  0
  4  9  1  0  0  0  0
  9 10  1  0  0  0  0
 10 11  1  0  0  0  0
 11 12  1  0  0  0  0
 12 13  2  0  0  0  0
 12 14  1  0  0  0  0
 14 15  1  0  0  0  0
 15 16  1  0  0  0  0
 12 17  2  0  0  0  0
 17 18  1  0  0  0  0
 18 19  1  0  0  0  0
  1 20  1  0  0  0  0
  1 21  1  0  0  0  0
  1 22  1  0  0  0  0
  2 23  1  0  0  0  0
  2 24  1  0  0  0  0
  7 25  1  0  0  0  0
  7 26  1  0  0  0  0
  8 27  1  0  0  0  0
  8 28  1  0  0  0  0
  8 29  1  0  0  0  0
 10 30  1  0  0  0  0
 10 31  1  0  0  0  0
 15 32  1  0  0  0  0
 15 33  1  0  0  0  0
 16 34  1  0  0  0  0
 16 35  1  0  0  0  0
 16 36  1  0  0  0  0
 18 37  1  0  0  0  0
 18 38  1  0  0  0  0
 19 39  1  0  0  0  0
 19 40  1  0  0  0  0
 19 41  1  0  0  0  0
M  END
