 xtb: 6.7.1 (edcfbbe)
          04092505213D

 41 40  0     0  0            999 V2000
    5.3082   -0.4276   -2.3303 C   0  0  0  0  0  0  0  0  0  0  0  0
    3.8723   -0.8075   -2.0298 C   0  0  0  0  0  0  0  0  0  0  0  0
    3.5873   -0.4298   -0.6680 O   0  0  0  0  0  0  0  0  0  0  0  0
    2.1089   -0.1858   -0.1458 P   0  0  0  0  0  0  0  0  0  0  0  0
    1.0193    0.9119   -1.3592 S   0  0  0  0  0  0  0  0  0  0  0  0
    2.3431    0.3653    1.3150 O   0  0  0  0  0  0  0  0  0  0  0  0
    2.4901    1.7692    1.6097 C   0  0  0  0  0  0  0  0  0  0  0  0
    3.7145    2.3601    0.9458 C   0  0  0  0  0  0  0  0  0  0  0  0
    1.4914   -2.1524    0.2915 S   0  0  0  0  0  0  0  0  0  0  0  0
   -0.1755   -1.8584    0.9413 C   0  0  0  0  0  0  0  0  0  0  0  0
   -1.3952   -1.4729   -0.3555 S   0  0  0  0  0  0  0  0  0  0  0  0
   -2.2348    0.2753    0.5308 P   0  0  0  0  0  0  0  0  0  0  0  0
   -1.0540    1.3510    1.6579 S   0  0  0  0  0  0  0  0  0  0  0  0
   -3.4651   -0.2193    1.3797 O   0  0  0  0  0  0  0  0  0  0  0  0
   -4.5307   -1.0466    0.8413 C   0  0  0  0  0  0  0  0  0  0  0  0
   -4.4453   -2.4441    1.4213 C   0  0  0  0  0  0  0  0  0  0  0  0
   -2.9565    1.0021   -0.6787 O   0  0  0  0  0  0  0  0  0  0  0  0
   -2.2790    1.7677   -1.6934 C   0  0  0  0  0  0  0  0  0  0  0  0
   -3.3239    2.5918   -2.4163 C   0  0  0  0  0  0  0  0  0  0  0  0
    5.9748   -0.9208   -1.6289 H   0  0  0  0  0  0  0  0  0  0  0  0
    5.5537   -0.7385   -3.3404 H   0  0  0  0  0  0  0  0  0  0  0  0
    5.4391    0.6474   -2.2445 H   0  0  0  0  0  0  0  0  0  0  0  0
    3.7171   -1.8857   -2.1209 H   0  0  0  0  0  0  0  0  0  0  0  0
    3.1712   -0.2865   -2.6910 H   0  0  0  0  0  0  0  0  0  0  0  0
    1.5786    2.2864    1.2933 H   0  0  0  0  0  0  0  0  0  0  0  0
    2.5582    1.7964    2.6980 H   0  0  0  0  0  0  0  0  0  0  0  0
    3.5902    2.3444   -0.1365 H   0  0  0  0  0  0  0  0  0  0  0  0
    3.8382    3.3879    1.2721 H   0  0  0  0  0  0  0  0  0  0  0  0
    4.5978    1.7841    1.2088 H   0  0  0  0  0  0  0  0  0  0  0  0
   -0.1475   -1.0275    1.6506 H   0  0  0  0  0  0  0  0  0  0  0  0
   -0.4643   -2.7873    1.4256 H   0  0  0  0  0  0  0  0  0  0  0  0
   -5.4512   -0.5449    1.1428 H   0  0  0  0  0  0  0  0  0  0  0  0
   -4.4589   -1.0607   -0.2479 H   0  0  0  0  0  0  0  0  0  0  0  0
   -5.3172   -3.0100    1.1090 H   0  0  0  0  0  0  0  0  0  0  0  0
   -3.5501   -2.9494    1.0676 H   0  0  0  0  0  0  0  0  0  0  0  0
   -4.4196   -2.3946    2.5062 H   0  0  0  0  0  0  0  0  0  0  0  0
   -1.5238    2.3995   -1.2159 H   0  0  0  0  0  0  0  0  0  0  0  0
   -1.7696    1.0762   -2.3697 H   0  0  0  0  0  0  0  0  0  0  0  0
   -3.8180    3.2617   -1.7182 H   0  0  0  0  0  0  0  0  0  0  0  0
   -2.8380    3.1744   -3.1917 H   0  0  0  0  0  0  0  0  0  0  0  0
   -4.0657    1.9387   -2.8663 H   0  0  0  0  0  0  0  0  0  0  0  0
  1  2  1  0  0  0  0
  2  3  1  0  0  0  0
  3  4  2  0  0  0  0
  4  5  2  0  0  0  0
  4  6  2  0  0  0  0
  6  7  1  0  0  0  0
  7  8  1  0  0  0  0
  4  9  1  0  0  0  0
  9 10  1  0  0  0  0
 10 11  1  0  0  0  0
 11 12  1  0  0  0  0
 12 13  2  0  0  0  0
 12 14  2  0  0  0  0
 14 15  1  0  0  0  0
 15 16  1  0  0  0  0
 12 17  2  0  0  0  0
 17 18  1  0  0  0  0
 18 19  1  0  0  0  0
  1 20  1  0  0  0  0
  1 21  1  0  0  0  0
  1 22  1  0  0  0  0
  2 23  1  0  0  0  0
  2 24  1  0  0  0  0
  7 25  1  0  0  0  0
  7 26  1  0  0  0  0
  8 27  1  0  0  0  0
  8 28  1  0  0  0  0
  8 29  1  0  0  0  0
 10 30  1  0  0  0  0
 10 31  1  0  0  0  0
 15 32  1  0  0  0  0
 15 33  1  0  0  0  0
 16 34  1  0  0  0  0
 16 35  1  0  0  0  0
 16 36  1  0  0  0  0
 18 37  1  0  0  0  0
 18 38  1  0  0  0  0
 19 39  1  0  0  0  0
 19 40  1  0  0  0  0
 19 41  1  0  0  0  0
M  END
