 xtb: 6.7.1 (edcfbbe)
          04092507313D

 38 37  0     0  0            999 V2000
    3.9420   -3.5374   -0.4565 C   0  0  0  0  0  0  0  0  0  0  0  0
    4.4261   -2.2476   -1.0998 C   0  0  0  0  0  0  0  0  0  0  0  0
    3.3697   -1.6282   -1.8608 O   0  0  0  0  0  0  0  0  0  0  0  0
    2.5214   -0.8451   -1.2327 C   0  0  0  0  0  0  0  0  0  0  0  0
    2.5763   -0.5710   -0.0514 O   0  0  0  0  0  0  0  0  0  0  0  0
    1.4638   -0.2931   -2.1661 C   0  0  0  0  0  0  0  0  0  0  0  0
    0.3373    0.3157   -1.3425 C   0  0  0  0  0  0  0  0  0  0  0  0
   -0.3652    0.8582   -1.9830 H   0  0  0  0  0  0  0  0  0  0  0  0
    0.9185    1.3068   -0.3450 C   0  0  0  0  0  0  0  0  0  0  0  0
    1.7492    2.1255   -0.6691 O   0  0  0  0  0  0  0  0  0  0  0  0
    0.3548    1.2204    0.8394 O   0  0  0  0  0  0  0  0  0  0  0  0
    0.8445    2.0436    1.9155 C   0  0  0  0  0  0  0  0  0  0  0  0
    1.5659    1.1665    2.9236 C   0  0  0  0  0  0  0  0  0  0  0  0
   -0.5935   -1.0220   -0.5045 S   0  0  0  0  0  0  0  0  0  0  0  0
   -2.1118    0.1275    0.3651 P   0  0  0  0  0  0  0  0  0  0  0  0
   -2.4851    1.9103   -0.3873 S   0  0  0  0  0  0  0  0  0  0  0  0
   -3.3928   -0.8356    0.2829 O   0  0  0  0  0  0  0  0  0  0  0  0
   -4.1274   -1.0042   -0.9338 C   0  0  0  0  0  0  0  0  0  0  0  0
   -1.8257    0.0329    1.9237 O   0  0  0  0  0  0  0  0  0  0  0  0
   -2.7528    0.6077    2.8603 C   0  0  0  0  0  0  0  0  0  0  0  0
    3.5616   -4.2141   -1.2163 H   0  0  0  0  0  0  0  0  0  0  0  0
    4.7673   -4.0101    0.0653 H   0  0  0  0  0  0  0  0  0  0  0  0
    3.1481   -3.3240    0.2560 H   0  0  0  0  0  0  0  0  0  0  0  0
    5.2124   -2.4358   -1.8307 H   0  0  0  0  0  0  0  0  0  0  0  0
    4.7714   -1.5398   -0.3410 H   0  0  0  0  0  0  0  0  0  0  0  0
    1.0992   -1.0836   -2.8201 H   0  0  0  0  0  0  0  0  0  0  0  0
    1.9290    0.4870   -2.7731 H   0  0  0  0  0  0  0  0  0  0  0  0
    1.5079    2.8007    1.4884 H   0  0  0  0  0  0  0  0  0  0  0  0
   -0.0376    2.5198    2.3486 H   0  0  0  0  0  0  0  0  0  0  0  0
    2.3992    0.6634    2.4380 H   0  0  0  0  0  0  0  0  0  0  0  0
    1.9365    1.7804    3.7374 H   0  0  0  0  0  0  0  0  0  0  0  0
    0.8859    0.4133    3.3126 H   0  0  0  0  0  0  0  0  0  0  0  0
   -5.0712   -1.4614   -0.6477 H   0  0  0  0  0  0  0  0  0  0  0  0
   -3.5754   -1.6538   -1.6123 H   0  0  0  0  0  0  0  0  0  0  0  0
   -4.3004   -0.0338   -1.4031 H   0  0  0  0  0  0  0  0  0  0  0  0
   -3.0285    1.6169    2.5485 H   0  0  0  0  0  0  0  0  0  0  0  0
   -2.2298    0.6320    3.8131 H   0  0  0  0  0  0  0  0  0  0  0  0
   -3.6449   -0.0138    2.9255 H   0  0  0  0  0  0  0  0  0  0  0  0
  1  2  1  0  0  0  0
  2  3  1  0  0  0  0
  3  4  4  0  0  0  0
  4  5  2  0  0  0  0
  4  6  1  0  0  0  0
  6  7  1  0  0  0  0
  7  8  1  0  0  0  0
  7  9  1  0  0  0  0
  9 10  2  0  0  0  0
  9 11  1  0  0  0  0
 11 12  1  0  0  0  0
 12 13  1  0  0  0  0
  7 14  1  0  0  0  0
 14 15  1  0  0  0  0
 15 16  2  0  0  0  0
 15 17  1  0  0  0  0
 17 18  1  0  0  0  0
 15 19  1  0  0  0  0
 19 20  1  0  0  0  0
  1 21  1  0  0  0  0
  1 22  1  0  0  0  0
  1 23  1  0  0  0  0
  2 24  1  0  0  0  0
  2 25  1  0  0  0  0
  6 26  1  0  0  0  0
  6 27  1  0  0  0  0
 12 28  1  0  0  0  0
 12 29  1  0  0  0  0
 13 30  1  0  0  0  0
 13 31  1  0  0  0  0
 13 32  1  0  0  0  0
 18 33  1  0  0  0  0
 18 34  1  0  0  0  0
 18 35  1  0  0  0  0
 20 36  1  0  0  0  0
 20 37  1  0  0  0  0
 20 38  1  0  0  0  0
M  END
