 xtb: 6.7.1 (edcfbbe)
          04092505203D

 41 40  0     0  0            999 V2000
    2.5500   -0.4956   -2.9093 C   0  0  0  0  0  0  0  0  0  0  0  0
    2.6690    0.7888   -2.1140 C   0  0  0  0  0  0  0  0  0  0  0  0
    3.0931    0.5210   -0.7639 O   0  0  0  0  0  0  0  0  0  0  0  0
    2.1433    0.3899    0.4996 P   0  0  0  0  0  0  0  0  0  0  0  0
    1.0101    1.9209    0.9389 S   0  0  0  0  0  0  0  0  0  0  0  0
    3.1974    0.1829    1.6524 O   0  0  0  0  0  0  0  0  0  0  0  0
    4.1956   -0.8717    1.6485 C   0  0  0  0  0  0  0  0  0  0  0  0
    3.8627   -1.9070    2.7041 C   0  0  0  0  0  0  0  0  0  0  0  0
    1.1721   -1.4926    0.2679 S   0  0  0  0  0  0  0  0  0  0  0  0
   -0.1616   -1.2407    1.4825 C   0  0  0  0  0  0  0  0  0  0  0  0
   -1.8023   -1.6433    0.8240 S   0  0  0  0  0  0  0  0  0  0  0  0
   -2.1410    0.0315   -0.3996 P   0  0  0  0  0  0  0  0  0  0  0  0
   -0.8918    0.4975   -1.8439 S   0  0  0  0  0  0  0  0  0  0  0  0
   -2.3480    1.1195    0.7307 O   0  0  0  0  0  0  0  0  0  0  0  0
   -2.5278    2.5172    0.4164 C   0  0  0  0  0  0  0  0  0  0  0  0
   -2.3701    3.3041    1.6997 C   0  0  0  0  0  0  0  0  0  0  0  0
   -3.6277   -0.1839   -0.9232 O   0  0  0  0  0  0  0  0  0  0  0  0
   -3.9160   -0.8597   -2.1599 C   0  0  0  0  0  0  0  0  0  0  0  0
   -3.5523   -2.3288   -2.0967 C   0  0  0  0  0  0  0  0  0  0  0  0
    2.3272   -0.2478   -3.9418 H   0  0  0  0  0  0  0  0  0  0  0  0
    3.4804   -1.0542   -2.8620 H   0  0  0  0  0  0  0  0  0  0  0  0
    1.7424   -1.1105   -2.5189 H   0  0  0  0  0  0  0  0  0  0  0  0
    1.7186    1.3298   -2.0985 H   0  0  0  0  0  0  0  0  0  0  0  0
    3.4488    1.4364   -2.5191 H   0  0  0  0  0  0  0  0  0  0  0  0
    4.2434   -1.3170    0.6530 H   0  0  0  0  0  0  0  0  0  0  0  0
    5.1360   -0.3651    1.8695 H   0  0  0  0  0  0  0  0  0  0  0  0
    2.9559   -2.4447    2.4389 H   0  0  0  0  0  0  0  0  0  0  0  0
    4.6835   -2.6134    2.7768 H   0  0  0  0  0  0  0  0  0  0  0  0
    3.7202   -1.4230    3.6663 H   0  0  0  0  0  0  0  0  0  0  0  0
   -0.1444   -0.1974    1.8069 H   0  0  0  0  0  0  0  0  0  0  0  0
   -0.0096   -1.9212    2.3161 H   0  0  0  0  0  0  0  0  0  0  0  0
   -1.7725    2.8081   -0.3216 H   0  0  0  0  0  0  0  0  0  0  0  0
   -3.5240    2.6404   -0.0158 H   0  0  0  0  0  0  0  0  0  0  0  0
   -1.3564    3.1902    2.0765 H   0  0  0  0  0  0  0  0  0  0  0  0
   -2.5597    4.3532    1.4992 H   0  0  0  0  0  0  0  0  0  0  0  0
   -3.0717    2.9419    2.4453 H   0  0  0  0  0  0  0  0  0  0  0  0
   -4.9879   -0.7113   -2.2957 H   0  0  0  0  0  0  0  0  0  0  0  0
   -3.3640   -0.3601   -2.9628 H   0  0  0  0  0  0  0  0  0  0  0  0
   -2.4721   -2.4381   -2.0029 H   0  0  0  0  0  0  0  0  0  0  0  0
   -4.0264   -2.7991   -1.2390 H   0  0  0  0  0  0  0  0  0  0  0  0
   -3.8785   -2.8206   -3.0074 H   0  0  0  0  0  0  0  0  0  0  0  0
  1  2  1  0  0  0  0
  2  3  1  0  0  0  0
  3  4  2  0  0  0  0
  4  5  2  0  0  0  0
  4  6  2  0  0  0  0
  6  7  1  0  0  0  0
  7  8  1  0  0  0  0
  4  9  1  0  0  0  0
  9 10  1  0  0  0  0
 10 11  1  0  0  0  0
 11 12  1  0  0  0  0
 12 13  2  0  0  0  0
 12 14  2  0  0  0  0
 14 15  1  0  0  0  0
 15 16  1  0  0  0  0
 12 17  2  0  0  0  0
 17 18  1  0  0  0  0
 18 19  1  0  0  0  0
  1 20  1  0  0  0  0
  1 21  1  0  0  0  0
  1 22  1  0  0  0  0
  2 23  1  0  0  0  0
  2 24  1  0  0  0  0
  7 25  1  0  0  0  0
  7 26  1  0  0  0  0
  8 27  1  0  0  0  0
  8 28  1  0  0  0  0
  8 29  1  0  0  0  0
 10 30  1  0  0  0  0
 10 31  1  0  0  0  0
 15 32  1  0  0  0  0
 15 33  1  0  0  0  0
 16 34  1  0  0  0  0
 16 35  1  0  0  0  0
 16 36  1  0  0  0  0
 18 37  1  0  0  0  0
 18 38  1  0  0  0  0
 19 39  1  0  0  0  0
 19 40  1  0  0  0  0
 19 41  1  0  0  0  0
M  END
