 xtb: 6.7.1 (edcfbbe)
          04032519423D

 20 20  0     0  0            999 V2000
    0.6101    1.7019   -0.0356 C   0  0  0  0  0  0  0  0  0  0  0  0
    1.3939    0.4040   -0.2509 C   0  0  0  0  0  0  0  0  0  0  0  0
    1.6095    0.2757   -1.3174 H   0  0  0  0  0  0  0  0  0  0  0  0
    0.5464   -0.7925    0.2192 C   0  0  0  0  0  0  0  0  0  0  0  0
    0.3571   -0.7042    1.3031 H   0  0  0  0  0  0  0  0  0  0  0  0
   -0.8037   -0.7667   -0.5130 C   0  0  0  0  0  0  0  0  0  0  0  0
   -0.6260   -0.9186   -1.5817 H   0  0  0  0  0  0  0  0  0  0  0  0
   -1.4677    0.6109   -0.2974 C   0  0  0  0  0  0  0  0  0  0  0  0
   -2.3541    0.6838   -0.9417 H   0  0  0  0  0  0  0  0  0  0  0  0
   -0.6393    1.6685   -0.7095 O   0  0  0  0  0  0  0  0  0  0  0  0
   -1.8067    0.7032    1.0523 O   0  0  0  0  0  0  0  0  0  0  0  0
   -1.6690   -1.7926   -0.1189 O   0  0  0  0  0  0  0  0  0  0  0  0
    1.1990   -2.0096   -0.0500 O   0  0  0  0  0  0  0  0  0  0  0  0
    2.6459    0.4170    0.3888 O   0  0  0  0  0  0  0  0  0  0  0  0
    1.1442    2.5547   -0.4537 H   0  0  0  0  0  0  0  0  0  0  0  0
    0.4472    1.8547    1.0396 H   0  0  0  0  0  0  0  0  0  0  0  0
   -2.3970    1.4570    1.2023 H   0  0  0  0  0  0  0  0  0  0  0  0
   -1.8985   -1.6656    0.8154 H   0  0  0  0  0  0  0  0  0  0  0  0
    2.1444   -1.8929    0.1372 H   0  0  0  0  0  0  0  0  0  0  0  0
    2.5357    0.6497    1.3232 H   0  0  0  0  0  0  0  0  0  0  0  0
  1  2  1  0  0  0  0
  2  3  1  0  0  0  0
  2  4  1  0  0  0  0
  4  5  1  0  0  0  0
  4  6  1  0  0  0  0
  6  7  1  0  0  0  0
  6  8  1  0  0  0  0
  8  9  1  0  0  0  0
  1 10  1  0  0  0  0
  8 10  1  0  0  0  0
  8 11  1  0  0  0  0
  6 12  1  0  0  0  0
  4 13  1  0  0  0  0
  2 14  1  0  0  0  0
  1 15  1  0  0  0  0
  1 16  1  0  0  0  0
 11 17  1  0  0  0  0
 12 18  1  0  0  0  0
 13 19  1  0  0  0  0
 14 20  1  0  0  0  0
M  END
