 xtb: 6.7.1 (edcfbbe)
          04092507313D

 38 37  0     0  0            999 V2000
    3.2751   -1.5214    1.7330 C   0  0  0  0  0  0  0  0  0  0  0  0
    2.9190   -2.2081    0.4260 C   0  0  0  0  0  0  0  0  0  0  0  0
    2.6609   -1.2139   -0.5836 O   0  0  0  0  0  0  0  0  0  0  0  0
    1.4928   -1.1626   -1.1814 C   0  0  0  0  0  0  0  0  0  0  0  0
    0.5629   -1.9172   -0.9703 O   0  0  0  0  0  0  0  0  0  0  0  0
    1.4290   -0.0247   -2.1799 C   0  0  0  0  0  0  0  0  0  0  0  0
    0.3170    0.9537   -1.7938 C   0  0  0  0  0  0  0  0  0  0  0  0
    0.2500    1.7452   -2.5457 H   0  0  0  0  0  0  0  0  0  0  0  0
    0.5439    1.5930   -0.4381 C   0  0  0  0  0  0  0  0  0  0  0  0
   -0.3574    1.7338    0.3690 O   0  0  0  0  0  0  0  0  0  0  0  0
    1.7829    1.9415   -0.2483 O   0  0  0  0  0  0  0  0  0  0  0  0
    2.1469    2.5362    1.0171 C   0  0  0  0  0  0  0  0  0  0  0  0
    1.8747    4.0307    1.0140 C   0  0  0  0  0  0  0  0  0  0  0  0
   -1.3417    0.1832   -1.7827 S   0  0  0  0  0  0  0  0  0  0  0  0
   -1.6847   -0.3694    0.2447 P   0  0  0  0  0  0  0  0  0  0  0  0
   -0.4072   -0.8282    1.6740 S   0  0  0  0  0  0  0  0  0  0  0  0
   -2.8641    0.5983    0.6983 O   0  0  0  0  0  0  0  0  0  0  0  0
   -2.8050    1.5272    1.7794 C   0  0  0  0  0  0  0  0  0  0  0  0
   -2.6813   -1.5941   -0.0439 O   0  0  0  0  0  0  0  0  0  0  0  0
   -2.2505   -2.8884   -0.4585 C   0  0  0  0  0  0  0  0  0  0  0  0
    4.0975   -0.8298    1.5778 H   0  0  0  0  0  0  0  0  0  0  0  0
    2.4120   -0.9799    2.1150 H   0  0  0  0  0  0  0  0  0  0  0  0
    3.5652   -2.2709    2.4614 H   0  0  0  0  0  0  0  0  0  0  0  0
    2.0304   -2.8348    0.5396 H   0  0  0  0  0  0  0  0  0  0  0  0
    3.7540   -2.8039    0.0510 H   0  0  0  0  0  0  0  0  0  0  0  0
    1.1980   -0.4393   -3.1613 H   0  0  0  0  0  0  0  0  0  0  0  0
    2.3875    0.4923   -2.1955 H   0  0  0  0  0  0  0  0  0  0  0  0
    1.5873    2.0334    1.8110 H   0  0  0  0  0  0  0  0  0  0  0  0
    3.2115    2.3236    1.1105 H   0  0  0  0  0  0  0  0  0  0  0  0
    2.3986    4.5051    0.1890 H   0  0  0  0  0  0  0  0  0  0  0  0
    0.8083    4.2200    0.9157 H   0  0  0  0  0  0  0  0  0  0  0  0
    2.2207    4.4560    1.9501 H   0  0  0  0  0  0  0  0  0  0  0  0
   -2.5812    2.5181    1.3881 H   0  0  0  0  0  0  0  0  0  0  0  0
   -2.0340    1.2315    2.4937 H   0  0  0  0  0  0  0  0  0  0  0  0
   -3.7858    1.5065    2.2492 H   0  0  0  0  0  0  0  0  0  0  0  0
   -1.8859   -2.8568   -1.4851 H   0  0  0  0  0  0  0  0  0  0  0  0
   -3.1273   -3.5261   -0.3777 H   0  0  0  0  0  0  0  0  0  0  0  0
   -1.4522   -3.2465    0.1933 H   0  0  0  0  0  0  0  0  0  0  0  0
  1  2  1  0  0  0  0
  2  3  1  0  0  0  0
  3  4  4  0  0  0  0
  4  5  2  0  0  0  0
  4  6  1  0  0  0  0
  6  7  1  0  0  0  0
  7  8  1  0  0  0  0
  7  9  1  0  0  0  0
  9 10  2  0  0  0  0
  9 11  4  0  0  0  0
 11 12  1  0  0  0  0
 12 13  1  0  0  0  0
  7 14  1  0  0  0  0
 14 15  1  0  0  0  0
 15 16  2  0  0  0  0
 15 17  1  0  0  0  0
 17 18  1  0  0  0  0
 15 19  1  0  0  0  0
 19 20  1  0  0  0  0
  1 21  1  0  0  0  0
  1 22  1  0  0  0  0
  1 23  1  0  0  0  0
  2 24  1  0  0  0  0
  2 25  1  0  0  0  0
  6 26  1  0  0  0  0
  6 27  1  0  0  0  0
 12 28  1  0  0  0  0
 12 29  1  0  0  0  0
 13 30  1  0  0  0  0
 13 31  1  0  0  0  0
 13 32  1  0  0  0  0
 18 33  1  0  0  0  0
 18 34  1  0  0  0  0
 18 35  1  0  0  0  0
 20 36  1  0  0  0  0
 20 37  1  0  0  0  0
 20 38  1  0  0  0  0
M  END
