 xtb: 6.7.1 (edcfbbe)
          04092505213D

 41 40  0     0  0            999 V2000
    2.2148   -3.0008   -1.1653 C   0  0  0  0  0  0  0  0  0  0  0  0
    3.2743   -1.9903   -1.5524 C   0  0  0  0  0  0  0  0  0  0  0  0
    3.5133   -1.0067   -0.5196 O   0  0  0  0  0  0  0  0  0  0  0  0
    2.4464   -0.0103    0.0942 P   0  0  0  0  0  0  0  0  0  0  0  0
    3.3162    1.5067    0.9654 S   0  0  0  0  0  0  0  0  0  0  0  0
    1.4798   -0.8567    1.0486 O   0  0  0  0  0  0  0  0  0  0  0  0
    1.6541   -0.8636    2.4778 C   0  0  0  0  0  0  0  0  0  0  0  0
    2.8436   -1.7126    2.8770 C   0  0  0  0  0  0  0  0  0  0  0  0
    1.1508    0.4279   -1.5217 S   0  0  0  0  0  0  0  0  0  0  0  0
    0.4029    1.8932   -0.7682 C   0  0  0  0  0  0  0  0  0  0  0  0
   -0.6929    1.4976    0.6127 S   0  0  0  0  0  0  0  0  0  0  0  0
   -2.1069    0.3698   -0.5373 P   0  0  0  0  0  0  0  0  0  0  0  0
   -2.3861    1.0061   -2.3638 S   0  0  0  0  0  0  0  0  0  0  0  0
   -3.3838    0.3816    0.4055 O   0  0  0  0  0  0  0  0  0  0  0  0
   -4.1617    1.5830    0.5892 C   0  0  0  0  0  0  0  0  0  0  0  0
   -5.4523    1.1961    1.2822 C   0  0  0  0  0  0  0  0  0  0  0  0
   -1.6471   -1.1332   -0.4752 O   0  0  0  0  0  0  0  0  0  0  0  0
   -1.5936   -1.8892    0.7616 C   0  0  0  0  0  0  0  0  0  0  0  0
   -2.8133   -2.7775    0.8880 C   0  0  0  0  0  0  0  0  0  0  0  0
    1.2464   -2.5119   -1.0730 H   0  0  0  0  0  0  0  0  0  0  0  0
    2.1510   -3.7598   -1.9390 H   0  0  0  0  0  0  0  0  0  0  0  0
    2.4706   -3.4727   -0.2203 H   0  0  0  0  0  0  0  0  0  0  0  0
    2.9932   -1.4640   -2.4686 H   0  0  0  0  0  0  0  0  0  0  0  0
    4.2515   -2.4589   -1.6805 H   0  0  0  0  0  0  0  0  0  0  0  0
    1.7829    0.1681    2.8203 H   0  0  0  0  0  0  0  0  0  0  0  0
    0.7178   -1.2671    2.8649 H   0  0  0  0  0  0  0  0  0  0  0  0
    2.7153   -2.7348    2.5312 H   0  0  0  0  0  0  0  0  0  0  0  0
    3.7501   -1.3005    2.4337 H   0  0  0  0  0  0  0  0  0  0  0  0
    2.9450   -1.7080    3.9576 H   0  0  0  0  0  0  0  0  0  0  0  0
   -0.1709    2.3824   -1.5551 H   0  0  0  0  0  0  0  0  0  0  0  0
    1.1857    2.5434   -0.3763 H   0  0  0  0  0  0  0  0  0  0  0  0
   -3.5758    2.2809    1.1937 H   0  0  0  0  0  0  0  0  0  0  0  0
   -4.3483    2.0291   -0.3929 H   0  0  0  0  0  0  0  0  0  0  0  0
   -5.2361    0.7326    2.2403 H   0  0  0  0  0  0  0  0  0  0  0  0
   -6.0501    2.0873    1.4421 H   0  0  0  0  0  0  0  0  0  0  0  0
   -6.0115    0.4963    0.6676 H   0  0  0  0  0  0  0  0  0  0  0  0
   -0.6756   -2.4754    0.6895 H   0  0  0  0  0  0  0  0  0  0  0  0
   -1.5210   -1.1901    1.5989 H   0  0  0  0  0  0  0  0  0  0  0  0
   -2.7223   -3.3822    1.7848 H   0  0  0  0  0  0  0  0  0  0  0  0
   -3.7130   -2.1713    0.9518 H   0  0  0  0  0  0  0  0  0  0  0  0
   -2.8900   -3.4280    0.0212 H   0  0  0  0  0  0  0  0  0  0  0  0
  1  2  1  0  0  0  0
  2  3  1  0  0  0  0
  3  4  2  0  0  0  0
  4  5  2  0  0  0  0
  4  6  1  0  0  0  0
  6  7  1  0  0  0  0
  7  8  1  0  0  0  0
  4  9  1  0  0  0  0
  9 10  1  0  0  0  0
 10 11  1  0  0  0  0
 11 12  1  0  0  0  0
 12 13  2  0  0  0  0
 12 14  2  0  0  0  0
 14 15  1  0  0  0  0
 15 16  1  0  0  0  0
 12 17  2  0  0  0  0
 17 18  1  0  0  0  0
 18 19  1  0  0  0  0
  1 20  1  0  0  0  0
  1 21  1  0  0  0  0
  1 22  1  0  0  0  0
  2 23  1  0  0  0  0
  2 24  1  0  0  0  0
  7 25  1  0  0  0  0
  7 26  1  0  0  0  0
  8 27  1  0  0  0  0
  8 28  1  0  0  0  0
  8 29  1  0  0  0  0
 10 30  1  0  0  0  0
 10 31  1  0  0  0  0
 15 32  1  0  0  0  0
 15 33  1  0  0  0  0
 16 34  1  0  0  0  0
 16 35  1  0  0  0  0
 16 36  1  0  0  0  0
 18 37  1  0  0  0  0
 18 38  1  0  0  0  0
 19 39  1  0  0  0  0
 19 40  1  0  0  0  0
 19 41  1  0  0  0  0
M  END
