 xtb: 6.7.1 (edcfbbe)
          04092505213D

 41 40  0     0  0            999 V2000
    4.4508   -2.0656    0.3689 C   0  0  0  0  0  0  0  0  0  0  0  0
    4.8332   -0.9158   -0.5392 C   0  0  0  0  0  0  0  0  0  0  0  0
    3.7033   -0.3737   -1.2659 O   0  0  0  0  0  0  0  0  0  0  0  0
    2.4465    0.3485   -0.6425 P   0  0  0  0  0  0  0  0  0  0  0  0
    1.6020    1.4197   -2.0519 S   0  0  0  0  0  0  0  0  0  0  0  0
    3.1011    1.0697    0.6103 O   0  0  0  0  0  0  0  0  0  0  0  0
    2.4060    1.8316    1.6125 C   0  0  0  0  0  0  0  0  0  0  0  0
    2.1468    3.2514    1.1522 C   0  0  0  0  0  0  0  0  0  0  0  0
    1.2037   -1.1524    0.2153 S   0  0  0  0  0  0  0  0  0  0  0  0
   -0.0367   -1.2886   -1.1153 C   0  0  0  0  0  0  0  0  0  0  0  0
   -1.6585   -1.7619   -0.4960 S   0  0  0  0  0  0  0  0  0  0  0  0
   -2.3727    0.1275    0.2092 P   0  0  0  0  0  0  0  0  0  0  0  0
   -1.0200    1.4912    0.5831 S   0  0  0  0  0  0  0  0  0  0  0  0
   -3.3261   -0.2384    1.4262 O   0  0  0  0  0  0  0  0  0  0  0  0
   -2.8345   -0.3594    2.7743 C   0  0  0  0  0  0  0  0  0  0  0  0
   -1.8862   -1.5290    2.9417 C   0  0  0  0  0  0  0  0  0  0  0  0
   -3.3936    0.6396   -0.8815 O   0  0  0  0  0  0  0  0  0  0  0  0
   -4.7598    0.1852   -1.0399 C   0  0  0  0  0  0  0  0  0  0  0  0
   -4.8548   -1.2914   -1.3596 C   0  0  0  0  0  0  0  0  0  0  0  0
    3.8004   -1.7195    1.1699 H   0  0  0  0  0  0  0  0  0  0  0  0
    3.9314   -2.8376   -0.1928 H   0  0  0  0  0  0  0  0  0  0  0  0
    5.3531   -2.4855    0.8025 H   0  0  0  0  0  0  0  0  0  0  0  0
    5.5038   -1.2401   -1.3367 H   0  0  0  0  0  0  0  0  0  0  0  0
    5.2942   -0.1049    0.0271 H   0  0  0  0  0  0  0  0  0  0  0  0
    1.4662    1.3330    1.8618 H   0  0  0  0  0  0  0  0  0  0  0  0
    3.0791    1.8088    2.4717 H   0  0  0  0  0  0  0  0  0  0  0  0
    1.4418    3.2527    0.3227 H   0  0  0  0  0  0  0  0  0  0  0  0
    1.7173    3.8194    1.9707 H   0  0  0  0  0  0  0  0  0  0  0  0
    3.0724    3.7199    0.8284 H   0  0  0  0  0  0  0  0  0  0  0  0
    0.2665   -2.0792   -1.7971 H   0  0  0  0  0  0  0  0  0  0  0  0
   -0.0902   -0.3238   -1.6278 H   0  0  0  0  0  0  0  0  0  0  0  0
   -2.3401    0.5790    3.0439 H   0  0  0  0  0  0  0  0  0  0  0  0
   -3.7407   -0.4873    3.3681 H   0  0  0  0  0  0  0  0  0  0  0  0
   -1.6429   -1.6419    3.9932 H   0  0  0  0  0  0  0  0  0  0  0  0
   -2.3432   -2.4450    2.5765 H   0  0  0  0  0  0  0  0  0  0  0  0
   -0.9655   -1.3515    2.3867 H   0  0  0  0  0  0  0  0  0  0  0  0
   -5.3030    0.4217   -0.1230 H   0  0  0  0  0  0  0  0  0  0  0  0
   -5.1306    0.8003   -1.8614 H   0  0  0  0  0  0  0  0  0  0  0  0
   -4.4857   -1.8840   -0.5246 H   0  0  0  0  0  0  0  0  0  0  0  0
   -5.8944   -1.5449   -1.5427 H   0  0  0  0  0  0  0  0  0  0  0  0
   -4.2678   -1.5293   -2.2430 H   0  0  0  0  0  0  0  0  0  0  0  0
  1  2  1  0  0  0  0
  2  3  1  0  0  0  0
  3  4  2  0  0  0  0
  4  5  2  0  0  0  0
  4  6  2  0  0  0  0
  6  7  1  0  0  0  0
  7  8  1  0  0  0  0
  4  9  1  0  0  0  0
  9 10  1  0  0  0  0
 10 11  1  0  0  0  0
 11 12  1  0  0  0  0
 12 13  2  0  0  0  0
 12 14  2  0  0  0  0
 14 15  1  0  0  0  0
 15 16  1  0  0  0  0
 12 17  2  0  0  0  0
 17 18  1  0  0  0  0
 18 19  1  0  0  0  0
  1 20  1  0  0  0  0
  1 21  1  0  0  0  0
  1 22  1  0  0  0  0
  2 23  1  0  0  0  0
  2 24  1  0  0  0  0
  7 25  1  0  0  0  0
  7 26  1  0  0  0  0
  8 27  1  0  0  0  0
  8 28  1  0  0  0  0
  8 29  1  0  0  0  0
 10 30  1  0  0  0  0
 10 31  1  0  0  0  0
 15 32  1  0  0  0  0
 15 33  1  0  0  0  0
 16 34  1  0  0  0  0
 16 35  1  0  0  0  0
 16 36  1  0  0  0  0
 18 37  1  0  0  0  0
 18 38  1  0  0  0  0
 19 39  1  0  0  0  0
 19 40  1  0  0  0  0
 19 41  1  0  0  0  0
M  END
