 xtb: 6.7.1 (edcfbbe)
          04092507313D

 38 37  0     0  0            999 V2000
    5.1918   -3.0481   -0.0205 C   0  0  0  0  0  0  0  0  0  0  0  0
    4.4317   -1.7728    0.2844 C   0  0  0  0  0  0  0  0  0  0  0  0
    3.1546   -1.8464   -0.3828 O   0  0  0  0  0  0  0  0  0  0  0  0
    2.3888   -0.7815   -0.3692 C   0  0  0  0  0  0  0  0  0  0  0  0
    2.6946    0.2744    0.1511 O   0  0  0  0  0  0  0  0  0  0  0  0
    1.0655   -1.0223   -1.0538 C   0  0  0  0  0  0  0  0  0  0  0  0
    0.3766    0.3032   -1.3542 C   0  0  0  0  0  0  0  0  0  0  0  0
    0.7538    0.7646   -2.2681 H   0  0  0  0  0  0  0  0  0  0  0  0
    0.4985    1.2920   -0.2092 C   0  0  0  0  0  0  0  0  0  0  0  0
    0.0191    1.0678    0.8872 O   0  0  0  0  0  0  0  0  0  0  0  0
    1.0125    2.4285   -0.5979 O   0  0  0  0  0  0  0  0  0  0  0  0
    1.2038    3.4828    0.3693 C   0  0  0  0  0  0  0  0  0  0  0  0
    2.6816    3.6170    0.6942 C   0  0  0  0  0  0  0  0  0  0  0  0
   -1.4141    0.0923   -1.6044 S   0  0  0  0  0  0  0  0  0  0  0  0
   -2.1532   -0.3231    0.3601 P   0  0  0  0  0  0  0  0  0  0  0  0
   -1.2824   -1.6481    1.5138 S   0  0  0  0  0  0  0  0  0  0  0  0
   -2.5766    1.0368    1.0532 O   0  0  0  0  0  0  0  0  0  0  0  0
   -3.5004    1.9539    0.4348 C   0  0  0  0  0  0  0  0  0  0  0  0
   -3.6118   -0.8271   -0.0899 O   0  0  0  0  0  0  0  0  0  0  0  0
   -3.8132   -2.1134   -0.6822 C   0  0  0  0  0  0  0  0  0  0  0  0
    4.6282   -3.9073    0.3299 H   0  0  0  0  0  0  0  0  0  0  0  0
    5.3474   -3.1429   -1.0908 H   0  0  0  0  0  0  0  0  0  0  0  0
    6.1531   -3.0203    0.4814 H   0  0  0  0  0  0  0  0  0  0  0  0
    4.9580   -0.8839   -0.0772 H   0  0  0  0  0  0  0  0  0  0  0  0
    4.2495   -1.6539    1.3570 H   0  0  0  0  0  0  0  0  0  0  0  0
    0.4677   -1.6115   -0.3468 H   0  0  0  0  0  0  0  0  0  0  0  0
    1.2020   -1.6159   -1.9563 H   0  0  0  0  0  0  0  0  0  0  0  0
    0.8158    4.3832   -0.1102 H   0  0  0  0  0  0  0  0  0  0  0  0
    0.6206    3.2432    1.2628 H   0  0  0  0  0  0  0  0  0  0  0  0
    2.8176    4.3908    1.4422 H   0  0  0  0  0  0  0  0  0  0  0  0
    3.0580    2.6718    1.0786 H   0  0  0  0  0  0  0  0  0  0  0  0
    3.2386    3.8747   -0.2016 H   0  0  0  0  0  0  0  0  0  0  0  0
   -3.2048    2.1511   -0.5964 H   0  0  0  0  0  0  0  0  0  0  0  0
   -3.4432    2.8596    1.0333 H   0  0  0  0  0  0  0  0  0  0  0  0
   -4.5041    1.5338    0.4587 H   0  0  0  0  0  0  0  0  0  0  0  0
   -3.4857   -2.0966   -1.7211 H   0  0  0  0  0  0  0  0  0  0  0  0
   -4.8819   -2.3015   -0.6188 H   0  0  0  0  0  0  0  0  0  0  0  0
   -3.2589   -2.8714   -0.1260 H   0  0  0  0  0  0  0  0  0  0  0  0
  1  2  1  0  0  0  0
  2  3  1  0  0  0  0
  3  4  4  0  0  0  0
  4  5  2  0  0  0  0
  4  6  1  0  0  0  0
  6  7  1  0  0  0  0
  7  8  1  0  0  0  0
  7  9  1  0  0  0  0
  9 10  2  0  0  0  0
  9 11  4  0  0  0  0
 11 12  1  0  0  0  0
 12 13  1  0  0  0  0
  7 14  1  0  0  0  0
 14 15  1  0  0  0  0
 15 16  2  0  0  0  0
 15 17  2  0  0  0  0
 17 18  1  0  0  0  0
 15 19  1  0  0  0  0
 19 20  1  0  0  0  0
  1 21  1  0  0  0  0
  1 22  1  0  0  0  0
  1 23  1  0  0  0  0
  2 24  1  0  0  0  0
  2 25  1  0  0  0  0
  6 26  1  0  0  0  0
  6 27  1  0  0  0  0
 12 28  1  0  0  0  0
 12 29  1  0  0  0  0
 13 30  1  0  0  0  0
 13 31  1  0  0  0  0
 13 32  1  0  0  0  0
 18 33  1  0  0  0  0
 18 34  1  0  0  0  0
 18 35  1  0  0  0  0
 20 36  1  0  0  0  0
 20 37  1  0  0  0  0
 20 38  1  0  0  0  0
M  END
