 xtb: 6.7.1 (edcfbbe)
          04092507313D

 38 37  0     0  0            999 V2000
    2.2011   -3.4008    0.5702 C   0  0  0  0  0  0  0  0  0  0  0  0
    3.2605   -2.3686    0.2200 C   0  0  0  0  0  0  0  0  0  0  0  0
    2.8403   -1.5725   -0.9051 O   0  0  0  0  0  0  0  0  0  0  0  0
    2.1649   -0.4698   -0.6894 C   0  0  0  0  0  0  0  0  0  0  0  0
    1.8787   -0.0241    0.4059 O   0  0  0  0  0  0  0  0  0  0  0  0
    1.7822    0.2412   -1.9699 C   0  0  0  0  0  0  0  0  0  0  0  0
    0.4330    0.9271   -1.7672 C   0  0  0  0  0  0  0  0  0  0  0  0
    0.2405    1.6338   -2.5777 H   0  0  0  0  0  0  0  0  0  0  0  0
    0.3802    1.6713   -0.4497 C   0  0  0  0  0  0  0  0  0  0  0  0
   -0.5264    1.5044    0.3565 O   0  0  0  0  0  0  0  0  0  0  0  0
    1.3055    2.5735   -0.3350 O   0  0  0  0  0  0  0  0  0  0  0  0
    1.3732    3.3165    0.9035 C   0  0  0  0  0  0  0  0  0  0  0  0
    2.5502    4.2656    0.8097 C   0  0  0  0  0  0  0  0  0  0  0  0
   -0.9485   -0.2729   -1.8020 S   0  0  0  0  0  0  0  0  0  0  0  0
   -1.6570   -0.5037    0.1828 P   0  0  0  0  0  0  0  0  0  0  0  0
   -0.7065   -1.0268    1.8288 S   0  0  0  0  0  0  0  0  0  0  0  0
   -2.9444    0.4232    0.4260 O   0  0  0  0  0  0  0  0  0  0  0  0
   -3.0552    1.4499    1.4085 C   0  0  0  0  0  0  0  0  0  0  0  0
   -2.4398   -1.7971   -0.4023 O   0  0  0  0  0  0  0  0  0  0  0  0
   -3.2789   -2.6102    0.4151 C   0  0  0  0  0  0  0  0  0  0  0  0
    1.2954   -2.9076    0.9210 H   0  0  0  0  0  0  0  0  0  0  0  0
    1.9601   -4.0026   -0.3017 H   0  0  0  0  0  0  0  0  0  0  0  0
    2.5714   -4.0435    1.3617 H   0  0  0  0  0  0  0  0  0  0  0  0
    4.1842   -2.8431   -0.1115 H   0  0  0  0  0  0  0  0  0  0  0  0
    3.4485   -1.7066    1.0699 H   0  0  0  0  0  0  0  0  0  0  0  0
    1.7364   -0.4668   -2.7950 H   0  0  0  0  0  0  0  0  0  0  0  0
    2.5458    0.9943   -2.1769 H   0  0  0  0  0  0  0  0  0  0  0  0
    0.4270    3.8489    1.0372 H   0  0  0  0  0  0  0  0  0  0  0  0
    1.4865    2.5938    1.7176 H   0  0  0  0  0  0  0  0  0  0  0  0
    3.4716    3.7059    0.6828 H   0  0  0  0  0  0  0  0  0  0  0  0
    2.4226    4.9350   -0.0354 H   0  0  0  0  0  0  0  0  0  0  0  0
    2.6102    4.8476    1.7231 H   0  0  0  0  0  0  0  0  0  0  0  0
   -4.0834    1.4166    1.7629 H   0  0  0  0  0  0  0  0  0  0  0  0
   -2.8344    2.4137    0.9537 H   0  0  0  0  0  0  0  0  0  0  0  0
   -2.3614    1.2615    2.2296 H   0  0  0  0  0  0  0  0  0  0  0  0
   -2.7996   -2.7913    1.3804 H   0  0  0  0  0  0  0  0  0  0  0  0
   -3.4065   -3.5442   -0.1267 H   0  0  0  0  0  0  0  0  0  0  0  0
   -4.2399   -2.1190    0.5665 H   0  0  0  0  0  0  0  0  0  0  0  0
  1  2  1  0  0  0  0
  2  3  1  0  0  0  0
  3  4  4  0  0  0  0
  4  5  2  0  0  0  0
  4  6  1  0  0  0  0
  6  7  1  0  0  0  0
  7  8  1  0  0  0  0
  7  9  1  0  0  0  0
  9 10  2  0  0  0  0
  9 11  4  0  0  0  0
 11 12  1  0  0  0  0
 12 13  1  0  0  0  0
  7 14  1  0  0  0  0
 14 15  1  0  0  0  0
 15 16  2  0  0  0  0
 15 17  1  0  0  0  0
 17 18  1  0  0  0  0
 15 19  1  0  0  0  0
 19 20  1  0  0  0  0
  1 21  1  0  0  0  0
  1 22  1  0  0  0  0
  1 23  1  0  0  0  0
  2 24  1  0  0  0  0
  2 25  1  0  0  0  0
  6 26  1  0  0  0  0
  6 27  1  0  0  0  0
 12 28  1  0  0  0  0
 12 29  1  0  0  0  0
 13 30  1  0  0  0  0
 13 31  1  0  0  0  0
 13 32  1  0  0  0  0
 18 33  1  0  0  0  0
 18 34  1  0  0  0  0
 18 35  1  0  0  0  0
 20 36  1  0  0  0  0
 20 37  1  0  0  0  0
 20 38  1  0  0  0  0
M  END
