 xtb: 6.7.1 (edcfbbe)
          04092507313D

 38 37  0     0  0            999 V2000
    3.9093   -1.4001    1.6019 C   0  0  0  0  0  0  0  0  0  0  0  0
    2.7860   -1.9264    0.7310 C   0  0  0  0  0  0  0  0  0  0  0  0
    2.5664   -0.9819   -0.3352 O   0  0  0  0  0  0  0  0  0  0  0  0
    1.4724   -1.0817   -1.0557 C   0  0  0  0  0  0  0  0  0  0  0  0
    0.6067   -1.9181   -0.8868 O   0  0  0  0  0  0  0  0  0  0  0  0
    1.3987   -0.0081   -2.1226 C   0  0  0  0  0  0  0  0  0  0  0  0
    0.2304    0.9383   -1.8315 C   0  0  0  0  0  0  0  0  0  0  0  0
    0.1569    1.6843   -2.6278 H   0  0  0  0  0  0  0  0  0  0  0  0
    0.3854    1.6517   -0.5039 C   0  0  0  0  0  0  0  0  0  0  0  0
   -0.5400    1.7770    0.2799 O   0  0  0  0  0  0  0  0  0  0  0  0
    1.5920    2.0868   -0.3012 O   0  0  0  0  0  0  0  0  0  0  0  0
    1.8934    2.7032    0.9713 C   0  0  0  0  0  0  0  0  0  0  0  0
    3.3961    2.8796    1.0469 C   0  0  0  0  0  0  0  0  0  0  0  0
   -1.3906    0.0923   -1.8329 S   0  0  0  0  0  0  0  0  0  0  0  0
   -1.7961   -0.3574    0.2075 P   0  0  0  0  0  0  0  0  0  0  0  0
   -0.5517   -0.7200    1.6935 S   0  0  0  0  0  0  0  0  0  0  0  0
   -3.0174    0.5917    0.5780 O   0  0  0  0  0  0  0  0  0  0  0  0
   -3.0202    1.5766    1.6104 C   0  0  0  0  0  0  0  0  0  0  0  0
   -2.7439   -1.6258   -0.0556 O   0  0  0  0  0  0  0  0  0  0  0  0
   -2.2499   -2.9126   -0.4241 C   0  0  0  0  0  0  0  0  0  0  0  0
    3.6063   -0.4731    2.0798 H   0  0  0  0  0  0  0  0  0  0  0  0
    4.1362   -2.1326    2.3690 H   0  0  0  0  0  0  0  0  0  0  0  0
    4.7947   -1.2221    0.9991 H   0  0  0  0  0  0  0  0  0  0  0  0
    1.8548   -2.0391    1.2951 H   0  0  0  0  0  0  0  0  0  0  0  0
    3.0410   -2.8893    0.2781 H   0  0  0  0  0  0  0  0  0  0  0  0
    1.2223   -0.4882   -3.0850 H   0  0  0  0  0  0  0  0  0  0  0  0
    2.3316    0.5537   -2.1331 H   0  0  0  0  0  0  0  0  0  0  0  0
    1.3648    3.6592    1.0223 H   0  0  0  0  0  0  0  0  0  0  0  0
    1.5115    2.0514    1.7637 H   0  0  0  0  0  0  0  0  0  0  0  0
    3.8881    1.9165    0.9478 H   0  0  0  0  0  0  0  0  0  0  0  0
    3.7354    3.5324    0.2489 H   0  0  0  0  0  0  0  0  0  0  0  0
    3.6560    3.3176    2.0046 H   0  0  0  0  0  0  0  0  0  0  0  0
   -4.0200    1.5598    2.0383 H   0  0  0  0  0  0  0  0  0  0  0  0
   -2.7965    2.5507    1.1787 H   0  0  0  0  0  0  0  0  0  0  0  0
   -2.2754    1.3333    2.3706 H   0  0  0  0  0  0  0  0  0  0  0  0
   -1.8872   -2.8992   -1.4518 H   0  0  0  0  0  0  0  0  0  0  0  0
   -3.0944   -3.5891   -0.3198 H   0  0  0  0  0  0  0  0  0  0  0  0
   -1.4345   -3.2087    0.2377 H   0  0  0  0  0  0  0  0  0  0  0  0
  1  2  1  0  0  0  0
  2  3  1  0  0  0  0
  3  4  4  0  0  0  0
  4  5  2  0  0  0  0
  4  6  1  0  0  0  0
  6  7  1  0  0  0  0
  7  8  1  0  0  0  0
  7  9  1  0  0  0  0
  9 10  2  0  0  0  0
  9 11  4  0  0  0  0
 11 12  1  0  0  0  0
 12 13  1  0  0  0  0
  7 14  1  0  0  0  0
 14 15  1  0  0  0  0
 15 16  2  0  0  0  0
 15 17  1  0  0  0  0
 17 18  1  0  0  0  0
 15 19  1  0  0  0  0
 19 20  1  0  0  0  0
  1 21  1  0  0  0  0
  1 22  1  0  0  0  0
  1 23  1  0  0  0  0
  2 24  1  0  0  0  0
  2 25  1  0  0  0  0
  6 26  1  0  0  0  0
  6 27  1  0  0  0  0
 12 28  1  0  0  0  0
 12 29  1  0  0  0  0
 13 30  1  0  0  0  0
 13 31  1  0  0  0  0
 13 32  1  0  0  0  0
 18 33  1  0  0  0  0
 18 34  1  0  0  0  0
 18 35  1  0  0  0  0
 20 36  1  0  0  0  0
 20 37  1  0  0  0  0
 20 38  1  0  0  0  0
M  END
