 xtb: 6.7.1 (edcfbbe)
          04092505213D

 41 40  0     0  0            999 V2000
    2.1775   -2.5507   -2.9513 C   0  0  0  0  0  0  0  0  0  0  0  0
    2.6933   -1.3392   -2.2031 C   0  0  0  0  0  0  0  0  0  0  0  0
    2.1770   -1.4023   -0.8523 O   0  0  0  0  0  0  0  0  0  0  0  0
    2.2158   -0.1425    0.1039 P   0  0  0  0  0  0  0  0  0  0  0  0
    1.3641    1.4928   -0.5857 S   0  0  0  0  0  0  0  0  0  0  0  0
    3.7812    0.0089    0.3530 O   0  0  0  0  0  0  0  0  0  0  0  0
    4.3620    1.1941    0.9221 C   0  0  0  0  0  0  0  0  0  0  0  0
    3.9580    1.3858    2.3696 C   0  0  0  0  0  0  0  0  0  0  0  0
    1.4596   -1.0267    1.8557 S   0  0  0  0  0  0  0  0  0  0  0  0
   -0.2690   -0.5239    1.7111 C   0  0  0  0  0  0  0  0  0  0  0  0
   -1.0742   -1.2382    0.2343 S   0  0  0  0  0  0  0  0  0  0  0  0
   -2.4667    0.3286   -0.1757 P   0  0  0  0  0  0  0  0  0  0  0  0
   -2.1087    2.0476    0.7101 S   0  0  0  0  0  0  0  0  0  0  0  0
   -3.8885   -0.3254    0.0574 O   0  0  0  0  0  0  0  0  0  0  0  0
   -4.2608   -1.0782    1.2247 C   0  0  0  0  0  0  0  0  0  0  0  0
   -4.2950   -0.2258    2.4780 C   0  0  0  0  0  0  0  0  0  0  0  0
   -2.6195    0.4047   -1.7464 O   0  0  0  0  0  0  0  0  0  0  0  0
   -1.7128    1.1244   -2.5980 C   0  0  0  0  0  0  0  0  0  0  0  0
   -0.7692    0.1596   -3.2879 C   0  0  0  0  0  0  0  0  0  0  0  0
    2.5140   -3.4584   -2.4594 H   0  0  0  0  0  0  0  0  0  0  0  0
    1.0912   -2.5470   -2.9705 H   0  0  0  0  0  0  0  0  0  0  0  0
    2.5546   -2.5284   -3.9685 H   0  0  0  0  0  0  0  0  0  0  0  0
    2.3579   -0.4032   -2.6626 H   0  0  0  0  0  0  0  0  0  0  0  0
    3.7843   -1.3368   -2.1460 H   0  0  0  0  0  0  0  0  0  0  0  0
    5.4362    1.0345    0.8198 H   0  0  0  0  0  0  0  0  0  0  0  0
    4.0536    2.0541    0.3187 H   0  0  0  0  0  0  0  0  0  0  0  0
    4.1610    0.4837    2.9412 H   0  0  0  0  0  0  0  0  0  0  0  0
    4.5152    2.2159    2.7920 H   0  0  0  0  0  0  0  0  0  0  0  0
    2.8934    1.6091    2.4324 H   0  0  0  0  0  0  0  0  0  0  0  0
   -0.3441    0.5660    1.6427 H   0  0  0  0  0  0  0  0  0  0  0  0
   -0.7556   -0.8990    2.6082 H   0  0  0  0  0  0  0  0  0  0  0  0
   -5.2531   -1.4595    0.9774 H   0  0  0  0  0  0  0  0  0  0  0  0
   -3.5644   -1.9151    1.3373 H   0  0  0  0  0  0  0  0  0  0  0  0
   -4.6421   -0.8257    3.3132 H   0  0  0  0  0  0  0  0  0  0  0  0
   -3.3019    0.1609    2.7018 H   0  0  0  0  0  0  0  0  0  0  0  0
   -4.9640    0.6198    2.3389 H   0  0  0  0  0  0  0  0  0  0  0  0
   -2.3482    1.6424   -3.3188 H   0  0  0  0  0  0  0  0  0  0  0  0
   -1.1602    1.8644   -2.0074 H   0  0  0  0  0  0  0  0  0  0  0  0
   -1.3363   -0.5893   -3.8331 H   0  0  0  0  0  0  0  0  0  0  0  0
   -0.1343    0.7104   -3.9744 H   0  0  0  0  0  0  0  0  0  0  0  0
   -0.1450   -0.3382   -2.5490 H   0  0  0  0  0  0  0  0  0  0  0  0
  1  2  1  0  0  0  0
  2  3  1  0  0  0  0
  3  4  2  0  0  0  0
  4  5  2  0  0  0  0
  4  6  2  0  0  0  0
  6  7  1  0  0  0  0
  7  8  1  0  0  0  0
  4  9  1  0  0  0  0
  9 10  1  0  0  0  0
 10 11  1  0  0  0  0
 11 12  1  0  0  0  0
 12 13  2  0  0  0  0
 12 14  2  0  0  0  0
 14 15  1  0  0  0  0
 15 16  1  0  0  0  0
 12 17  2  0  0  0  0
 17 18  1  0  0  0  0
 18 19  1  0  0  0  0
  1 20  1  0  0  0  0
  1 21  1  0  0  0  0
  1 22  1  0  0  0  0
  2 23  1  0  0  0  0
  2 24  1  0  0  0  0
  7 25  1  0  0  0  0
  7 26  1  0  0  0  0
  8 27  1  0  0  0  0
  8 28  1  0  0  0  0
  8 29  1  0  0  0  0
 10 30  1  0  0  0  0
 10 31  1  0  0  0  0
 15 32  1  0  0  0  0
 15 33  1  0  0  0  0
 16 34  1  0  0  0  0
 16 35  1  0  0  0  0
 16 36  1  0  0  0  0
 18 37  1  0  0  0  0
 18 38  1  0  0  0  0
 19 39  1  0  0  0  0
 19 40  1  0  0  0  0
 19 41  1  0  0  0  0
M  END
