 xtb: 6.7.1 (edcfbbe)
          04092505203D

 41 40  0     0  0            999 V2000
    5.7044    0.5311   -1.0481 C   0  0  0  0  0  0  0  0  0  0  0  0
    4.2654    0.1481   -1.3278 C   0  0  0  0  0  0  0  0  0  0  0  0
    3.5551    0.1575   -0.0722 O   0  0  0  0  0  0  0  0  0  0  0  0
    1.9699    0.1062   -0.0233 P   0  0  0  0  0  0  0  0  0  0  0  0
    1.0450    1.5024   -1.0426 S   0  0  0  0  0  0  0  0  0  0  0  0
    1.6648    0.1975    1.5179 O   0  0  0  0  0  0  0  0  0  0  0  0
    2.2502   -0.6977    2.5021 C   0  0  0  0  0  0  0  0  0  0  0  0
    3.4458   -0.0481    3.1660 C   0  0  0  0  0  0  0  0  0  0  0  0
    1.5719   -1.8986   -0.6174 S   0  0  0  0  0  0  0  0  0  0  0  0
   -0.1967   -1.7272   -0.9393 C   0  0  0  0  0  0  0  0  0  0  0  0
   -1.1144   -1.1472    0.5216 S   0  0  0  0  0  0  0  0  0  0  0  0
   -2.2806    0.4146   -0.3425 P   0  0  0  0  0  0  0  0  0  0  0  0
   -2.2522    0.5579   -2.2934 S   0  0  0  0  0  0  0  0  0  0  0  0
   -1.8810    1.7555    0.3792 O   0  0  0  0  0  0  0  0  0  0  0  0
   -1.4247    1.9177    1.7416 C   0  0  0  0  0  0  0  0  0  0  0  0
   -2.3570    1.2879    2.7532 C   0  0  0  0  0  0  0  0  0  0  0  0
   -3.7377    0.1674    0.2538 O   0  0  0  0  0  0  0  0  0  0  0  0
   -4.7140   -0.6673   -0.3897 C   0  0  0  0  0  0  0  0  0  0  0  0
   -4.2940   -2.1227   -0.4375 C   0  0  0  0  0  0  0  0  0  0  0  0
    5.7483    1.5243   -0.6100 H   0  0  0  0  0  0  0  0  0  0  0  0
    6.1511   -0.1802   -0.3596 H   0  0  0  0  0  0  0  0  0  0  0  0
    6.2605    0.5265   -1.9797 H   0  0  0  0  0  0  0  0  0  0  0  0
    4.1939   -0.8564   -1.7533 H   0  0  0  0  0  0  0  0  0  0  0  0
    3.7824    0.8595   -2.0058 H   0  0  0  0  0  0  0  0  0  0  0  0
    1.4438   -0.8826    3.2139 H   0  0  0  0  0  0  0  0  0  0  0  0
    2.5277   -1.6324    2.0078 H   0  0  0  0  0  0  0  0  0  0  0  0
    4.2260    0.1406    2.4336 H   0  0  0  0  0  0  0  0  0  0  0  0
    3.1557    0.8957    3.6192 H   0  0  0  0  0  0  0  0  0  0  0  0
    3.8276   -0.7128    3.9345 H   0  0  0  0  0  0  0  0  0  0  0  0
   -0.5474   -2.7217   -1.2045 H   0  0  0  0  0  0  0  0  0  0  0  0
   -0.3651   -1.0177   -1.7550 H   0  0  0  0  0  0  0  0  0  0  0  0
   -0.4162    1.4987    1.8127 H   0  0  0  0  0  0  0  0  0  0  0  0
   -1.3724    3.0019    1.8552 H   0  0  0  0  0  0  0  0  0  0  0  0
   -2.0020    1.5195    3.7527 H   0  0  0  0  0  0  0  0  0  0  0  0
   -3.3638    1.6773    2.6267 H   0  0  0  0  0  0  0  0  0  0  0  0
   -2.3785    0.2067    2.6243 H   0  0  0  0  0  0  0  0  0  0  0  0
   -5.6118   -0.5264    0.2137 H   0  0  0  0  0  0  0  0  0  0  0  0
   -4.8807   -0.2845   -1.4014 H   0  0  0  0  0  0  0  0  0  0  0  0
   -3.4462   -2.2388   -1.1114 H   0  0  0  0  0  0  0  0  0  0  0  0
   -4.0129   -2.4709    0.5530 H   0  0  0  0  0  0  0  0  0  0  0  0
   -5.1202   -2.7199   -0.8097 H   0  0  0  0  0  0  0  0  0  0  0  0
  1  2  1  0  0  0  0
  2  3  1  0  0  0  0
  3  4  2  0  0  0  0
  4  5  2  0  0  0  0
  4  6  2  0  0  0  0
  6  7  1  0  0  0  0
  7  8  1  0  0  0  0
  4  9  1  0  0  0  0
  9 10  1  0  0  0  0
 10 11  1  0  0  0  0
 11 12  1  0  0  0  0
 12 13  2  0  0  0  0
 12 14  2  0  0  0  0
 14 15  1  0  0  0  0
 15 16  1  0  0  0  0
 12 17  2  0  0  0  0
 17 18  1  0  0  0  0
 18 19  1  0  0  0  0
  1 20  1  0  0  0  0
  1 21  1  0  0  0  0
  1 22  1  0  0  0  0
  2 23  1  0  0  0  0
  2 24  1  0  0  0  0
  7 25  1  0  0  0  0
  7 26  1  0  0  0  0
  8 27  1  0  0  0  0
  8 28  1  0  0  0  0
  8 29  1  0  0  0  0
 10 30  1  0  0  0  0
 10 31  1  0  0  0  0
 15 32  1  0  0  0  0
 15 33  1  0  0  0  0
 16 34  1  0  0  0  0
 16 35  1  0  0  0  0
 16 36  1  0  0  0  0
 18 37  1  0  0  0  0
 18 38  1  0  0  0  0
 19 39  1  0  0  0  0
 19 40  1  0  0  0  0
 19 41  1  0  0  0  0
M  END
