 xtb: 6.7.1 (edcfbbe)
          04092505213D

 41 40  0     0  0            999 V2000
    2.3053   -3.0013   -0.3068 C   0  0  0  0  0  0  0  0  0  0  0  0
    2.9591   -2.0132    0.6381 C   0  0  0  0  0  0  0  0  0  0  0  0
    2.2176   -0.7750    0.6821 O   0  0  0  0  0  0  0  0  0  0  0  0
    2.6304    0.4884   -0.2107 P   0  0  0  0  0  0  0  0  0  0  0  0
    3.4221    0.1013   -1.9544 S   0  0  0  0  0  0  0  0  0  0  0  0
    3.6369    1.3397    0.6707 O   0  0  0  0  0  0  0  0  0  0  0  0
    3.3796    1.7083    2.0490 C   0  0  0  0  0  0  0  0  0  0  0  0
    2.8297    3.1176    2.1389 C   0  0  0  0  0  0  0  0  0  0  0  0
    0.8062    1.5451   -0.1918 S   0  0  0  0  0  0  0  0  0  0  0  0
    0.0249    0.6129   -1.5349 C   0  0  0  0  0  0  0  0  0  0  0  0
   -0.6041   -1.0071   -1.0148 S   0  0  0  0  0  0  0  0  0  0  0  0
   -2.4580   -0.3795   -0.2085 P   0  0  0  0  0  0  0  0  0  0  0  0
   -2.7904    1.5460    0.0021 S   0  0  0  0  0  0  0  0  0  0  0  0
   -2.6601   -1.2458    1.1103 O   0  0  0  0  0  0  0  0  0  0  0  0
   -2.2642   -0.7802    2.4110 C   0  0  0  0  0  0  0  0  0  0  0  0
   -0.7579   -0.7569    2.5731 C   0  0  0  0  0  0  0  0  0  0  0  0
   -3.4018   -1.1273   -1.2381 O   0  0  0  0  0  0  0  0  0  0  0  0
   -4.7958   -0.7915   -1.3946 C   0  0  0  0  0  0  0  0  0  0  0  0
   -5.6130   -1.1646   -0.1753 C   0  0  0  0  0  0  0  0  0  0  0  0
    1.2655   -3.1553   -0.0327 H   0  0  0  0  0  0  0  0  0  0  0  0
    2.3393   -2.6230   -1.3260 H   0  0  0  0  0  0  0  0  0  0  0  0
    2.8378   -3.9457   -0.2609 H   0  0  0  0  0  0  0  0  0  0  0  0
    3.9886   -1.8064    0.3304 H   0  0  0  0  0  0  0  0  0  0  0  0
    2.9482   -2.3779    1.6666 H   0  0  0  0  0  0  0  0  0  0  0  0
    2.6899    0.9838    2.4887 H   0  0  0  0  0  0  0  0  0  0  0  0
    4.3552    1.6343    2.5326 H   0  0  0  0  0  0  0  0  0  0  0  0
    1.8503    3.1786    1.6684 H   0  0  0  0  0  0  0  0  0  0  0  0
    2.7394    3.3966    3.1840 H   0  0  0  0  0  0  0  0  0  0  0  0
    3.5005    3.8107    1.6389 H   0  0  0  0  0  0  0  0  0  0  0  0
    0.7663    0.4323   -2.3139 H   0  0  0  0  0  0  0  0  0  0  0  0
   -0.7953    1.2280   -1.8997 H   0  0  0  0  0  0  0  0  0  0  0  0
   -2.6818    0.2205    2.5639 H   0  0  0  0  0  0  0  0  0  0  0  0
   -2.7313   -1.4878    3.0975 H   0  0  0  0  0  0  0  0  0  0  0  0
   -0.3237   -0.0000    1.9209 H   0  0  0  0  0  0  0  0  0  0  0  0
   -0.5107   -0.5161    3.6022 H   0  0  0  0  0  0  0  0  0  0  0  0
   -0.3346   -1.7245    2.3154 H   0  0  0  0  0  0  0  0  0  0  0  0
   -4.8718    0.2819   -1.5963 H   0  0  0  0  0  0  0  0  0  0  0  0
   -5.1013   -1.3576   -2.2755 H   0  0  0  0  0  0  0  0  0  0  0  0
   -6.6660   -1.0072   -0.3870 H   0  0  0  0  0  0  0  0  0  0  0  0
   -5.4465   -2.2071    0.0826 H   0  0  0  0  0  0  0  0  0  0  0  0
   -5.3252   -0.5414    0.6701 H   0  0  0  0  0  0  0  0  0  0  0  0
  1  2  1  0  0  0  0
  2  3  1  0  0  0  0
  3  4  1  0  0  0  0
  4  5  2  0  0  0  0
  4  6  2  0  0  0  0
  6  7  1  0  0  0  0
  7  8  1  0  0  0  0
  4  9  1  0  0  0  0
  9 10  1  0  0  0  0
 10 11  1  0  0  0  0
 11 12  1  0  0  0  0
 12 13  2  0  0  0  0
 12 14  2  0  0  0  0
 14 15  1  0  0  0  0
 15 16  1  0  0  0  0
 12 17  2  0  0  0  0
 17 18  1  0  0  0  0
 18 19  1  0  0  0  0
  1 20  1  0  0  0  0
  1 21  1  0  0  0  0
  1 22  1  0  0  0  0
  2 23  1  0  0  0  0
  2 24  1  0  0  0  0
  7 25  1  0  0  0  0
  7 26  1  0  0  0  0
  8 27  1  0  0  0  0
  8 28  1  0  0  0  0
  8 29  1  0  0  0  0
 10 30  1  0  0  0  0
 10 31  1  0  0  0  0
 15 32  1  0  0  0  0
 15 33  1  0  0  0  0
 16 34  1  0  0  0  0
 16 35  1  0  0  0  0
 16 36  1  0  0  0  0
 18 37  1  0  0  0  0
 18 38  1  0  0  0  0
 19 39  1  0  0  0  0
 19 40  1  0  0  0  0
 19 41  1  0  0  0  0
M  END
