 xtb: 6.7.1 (edcfbbe)
          04092505213D

 41 40  0     0  0            999 V2000
    3.5921   -2.1958    1.3014 C   0  0  0  0  0  0  0  0  0  0  0  0
    4.5575   -1.1186    0.8517 C   0  0  0  0  0  0  0  0  0  0  0  0
    3.8941    0.1260    0.5582 O   0  0  0  0  0  0  0  0  0  0  0  0
    2.8514    0.2778   -0.6326 P   0  0  0  0  0  0  0  0  0  0  0  0
    3.2798   -0.6587   -2.2926 S   0  0  0  0  0  0  0  0  0  0  0  0
    2.8137    1.8399   -0.8446 O   0  0  0  0  0  0  0  0  0  0  0  0
    2.5282    2.7802    0.2251 C   0  0  0  0  0  0  0  0  0  0  0  0
    1.2447    3.5272   -0.0765 C   0  0  0  0  0  0  0  0  0  0  0  0
    0.9841   -0.2085    0.2754 S   0  0  0  0  0  0  0  0  0  0  0  0
    0.0414   -0.4050   -1.2697 C   0  0  0  0  0  0  0  0  0  0  0  0
   -1.3213   -1.5664   -1.0560 S   0  0  0  0  0  0  0  0  0  0  0  0
   -2.4113   -0.3623    0.3037 P   0  0  0  0  0  0  0  0  0  0  0  0
   -2.3272    1.5728   -0.0285 S   0  0  0  0  0  0  0  0  0  0  0  0
   -1.8343   -0.8351    1.6959 O   0  0  0  0  0  0  0  0  0  0  0  0
   -1.7823    0.0300    2.8481 C   0  0  0  0  0  0  0  0  0  0  0  0
   -3.1632    0.2407    3.4320 C   0  0  0  0  0  0  0  0  0  0  0  0
   -3.8423   -1.0484    0.3288 O   0  0  0  0  0  0  0  0  0  0  0  0
   -4.7253   -1.1174   -0.8077 C   0  0  0  0  0  0  0  0  0  0  0  0
   -5.5740    0.1336   -0.9321 C   0  0  0  0  0  0  0  0  0  0  0  0
    2.9435   -2.4844    0.4752 H   0  0  0  0  0  0  0  0  0  0  0  0
    4.1534   -3.0664    1.6252 H   0  0  0  0  0  0  0  0  0  0  0  0
    2.9767   -1.8364    2.1226 H   0  0  0  0  0  0  0  0  0  0  0  0
    5.0994   -1.4379   -0.0435 H   0  0  0  0  0  0  0  0  0  0  0  0
    5.2635   -0.8540    1.6400 H   0  0  0  0  0  0  0  0  0  0  0  0
    2.4635    2.2383    1.1713 H   0  0  0  0  0  0  0  0  0  0  0  0
    3.3838    3.4566    0.2477 H   0  0  0  0  0  0  0  0  0  0  0  0
    1.3010    3.9817   -1.0616 H   0  0  0  0  0  0  0  0  0  0  0  0
    0.3853    2.8600   -0.0507 H   0  0  0  0  0  0  0  0  0  0  0  0
    1.1021    4.3043    0.6676 H   0  0  0  0  0  0  0  0  0  0  0  0
    0.7019   -0.8122   -2.0373 H   0  0  0  0  0  0  0  0  0  0  0  0
   -0.3647    0.5631   -1.5675 H   0  0  0  0  0  0  0  0  0  0  0  0
   -1.1183   -0.4905    3.5385 H   0  0  0  0  0  0  0  0  0  0  0  0
   -1.3355    0.9839    2.5499 H   0  0  0  0  0  0  0  0  0  0  0  0
   -3.7901    0.7598    2.7075 H   0  0  0  0  0  0  0  0  0  0  0  0
   -3.6209   -0.7162    3.6679 H   0  0  0  0  0  0  0  0  0  0  0  0
   -3.0898    0.8416    4.3328 H   0  0  0  0  0  0  0  0  0  0  0  0
   -4.1330   -1.2856   -1.7119 H   0  0  0  0  0  0  0  0  0  0  0  0
   -5.3423   -1.9960   -0.6098 H   0  0  0  0  0  0  0  0  0  0  0  0
   -6.2637    0.0156   -1.7616 H   0  0  0  0  0  0  0  0  0  0  0  0
   -6.1378    0.2962   -0.0175 H   0  0  0  0  0  0  0  0  0  0  0  0
   -4.9469    1.0034   -1.1147 H   0  0  0  0  0  0  0  0  0  0  0  0
  1  2  1  0  0  0  0
  2  3  1  0  0  0  0
  3  4  2  0  0  0  0
  4  5  2  0  0  0  0
  4  6  2  0  0  0  0
  6  7  1  0  0  0  0
  7  8  1  0  0  0  0
  4  9  1  0  0  0  0
  9 10  1  0  0  0  0
 10 11  1  0  0  0  0
 11 12  1  0  0  0  0
 12 13  2  0  0  0  0
 12 14  2  0  0  0  0
 14 15  1  0  0  0  0
 15 16  1  0  0  0  0
 12 17  2  0  0  0  0
 17 18  1  0  0  0  0
 18 19  1  0  0  0  0
  1 20  1  0  0  0  0
  1 21  1  0  0  0  0
  1 22  1  0  0  0  0
  2 23  1  0  0  0  0
  2 24  1  0  0  0  0
  7 25  1  0  0  0  0
  7 26  1  0  0  0  0
  8 27  1  0  0  0  0
  8 28  1  0  0  0  0
  8 29  1  0  0  0  0
 10 30  1  0  0  0  0
 10 31  1  0  0  0  0
 15 32  1  0  0  0  0
 15 33  1  0  0  0  0
 16 34  1  0  0  0  0
 16 35  1  0  0  0  0
 16 36  1  0  0  0  0
 18 37  1  0  0  0  0
 18 38  1  0  0  0  0
 19 39  1  0  0  0  0
 19 40  1  0  0  0  0
 19 41  1  0  0  0  0
M  END
