 xtb: 6.7.1 (edcfbbe)
          04092505213D

 41 40  0     0  0            999 V2000
    2.4357   -0.0945   -3.2229 C   0  0  0  0  0  0  0  0  0  0  0  0
    2.0514   -1.2183   -2.2825 C   0  0  0  0  0  0  0  0  0  0  0  0
    2.8274   -1.1918   -1.0730 O   0  0  0  0  0  0  0  0  0  0  0  0
    2.5635   -0.2486    0.1802 P   0  0  0  0  0  0  0  0  0  0  0  0
    2.7768    1.6862   -0.0075 S   0  0  0  0  0  0  0  0  0  0  0  0
    3.6410   -0.7937    1.1900 O   0  0  0  0  0  0  0  0  0  0  0  0
    3.7345   -2.1828    1.6020 C   0  0  0  0  0  0  0  0  0  0  0  0
    3.2845   -2.3283    3.0422 C   0  0  0  0  0  0  0  0  0  0  0  0
    0.6750   -0.9327    0.8956 S   0  0  0  0  0  0  0  0  0  0  0  0
    0.0889    0.6357    1.6189 C   0  0  0  0  0  0  0  0  0  0  0  0
   -1.7060    0.7016    1.6927 S   0  0  0  0  0  0  0  0  0  0  0  0
   -2.1553    0.8411   -0.3954 P   0  0  0  0  0  0  0  0  0  0  0  0
   -0.6558    1.2071   -1.6011 S   0  0  0  0  0  0  0  0  0  0  0  0
   -3.2643    1.9466   -0.5083 O   0  0  0  0  0  0  0  0  0  0  0  0
   -4.3158    2.2242    0.4515 C   0  0  0  0  0  0  0  0  0  0  0  0
   -5.1263    0.9985    0.8098 C   0  0  0  0  0  0  0  0  0  0  0  0
   -2.9558   -0.4905   -0.7355 O   0  0  0  0  0  0  0  0  0  0  0  0
   -2.3009   -1.7520   -0.9578 C   0  0  0  0  0  0  0  0  0  0  0  0
   -3.3343   -2.7184   -1.4996 C   0  0  0  0  0  0  0  0  0  0  0  0
    1.9169   -0.2248   -4.1670 H   0  0  0  0  0  0  0  0  0  0  0  0
    2.1462    0.8656   -2.7989 H   0  0  0  0  0  0  0  0  0  0  0  0
    3.5089   -0.0955   -3.3932 H   0  0  0  0  0  0  0  0  0  0  0  0
    2.2752   -2.1949   -2.7158 H   0  0  0  0  0  0  0  0  0  0  0  0
    0.9893   -1.1571   -2.0303 H   0  0  0  0  0  0  0  0  0  0  0  0
    3.1321   -2.7985    0.9310 H   0  0  0  0  0  0  0  0  0  0  0  0
    4.7890   -2.4369    1.4864 H   0  0  0  0  0  0  0  0  0  0  0  0
    2.2223   -2.1157    3.1337 H   0  0  0  0  0  0  0  0  0  0  0  0
    3.4709   -3.3461    3.3699 H   0  0  0  0  0  0  0  0  0  0  0  0
    3.8390   -1.6407    3.6747 H   0  0  0  0  0  0  0  0  0  0  0  0
    0.4761    1.4546    1.0062 H   0  0  0  0  0  0  0  0  0  0  0  0
    0.4374    0.7149    2.6460 H   0  0  0  0  0  0  0  0  0  0  0  0
   -3.8543    2.6604    1.3408 H   0  0  0  0  0  0  0  0  0  0  0  0
   -4.9206    2.9752   -0.0590 H   0  0  0  0  0  0  0  0  0  0  0  0
   -4.5069    0.2835    1.3480 H   0  0  0  0  0  0  0  0  0  0  0  0
   -5.9536    1.2968    1.4463 H   0  0  0  0  0  0  0  0  0  0  0  0
   -5.5140    0.5274   -0.0893 H   0  0  0  0  0  0  0  0  0  0  0  0
   -1.4833   -1.5978   -1.6700 H   0  0  0  0  0  0  0  0  0  0  0  0
   -1.8814   -2.1016   -0.0094 H   0  0  0  0  0  0  0  0  0  0  0  0
   -2.8627   -3.6787   -1.6800 H   0  0  0  0  0  0  0  0  0  0  0  0
   -4.1395   -2.8417   -0.7817 H   0  0  0  0  0  0  0  0  0  0  0  0
   -3.7461   -2.3392   -2.4305 H   0  0  0  0  0  0  0  0  0  0  0  0
  1  2  1  0  0  0  0
  2  3  1  0  0  0  0
  3  4  2  0  0  0  0
  4  5  2  0  0  0  0
  4  6  2  0  0  0  0
  6  7  1  0  0  0  0
  7  8  1  0  0  0  0
  4  9  1  0  0  0  0
  9 10  1  0  0  0  0
 10 11  1  0  0  0  0
 11 12  1  0  0  0  0
 12 13  2  0  0  0  0
 12 14  2  0  0  0  0
 14 15  1  0  0  0  0
 15 16  1  0  0  0  0
 12 17  2  0  0  0  0
 17 18  1  0  0  0  0
 18 19  1  0  0  0  0
  1 20  1  0  0  0  0
  1 21  1  0  0  0  0
  1 22  1  0  0  0  0
  2 23  1  0  0  0  0
  2 24  1  0  0  0  0
  7 25  1  0  0  0  0
  7 26  1  0  0  0  0
  8 27  1  0  0  0  0
  8 28  1  0  0  0  0
  8 29  1  0  0  0  0
 10 30  1  0  0  0  0
 10 31  1  0  0  0  0
 15 32  1  0  0  0  0
 15 33  1  0  0  0  0
 16 34  1  0  0  0  0
 16 35  1  0  0  0  0
 16 36  1  0  0  0  0
 18 37  1  0  0  0  0
 18 38  1  0  0  0  0
 19 39  1  0  0  0  0
 19 40  1  0  0  0  0
 19 41  1  0  0  0  0
M  END
