 xtb: 6.7.1 (edcfbbe)
          04092505213D

 41 40  0     0  0            999 V2000
    1.9319    2.9212    0.6160 C   0  0  0  0  0  0  0  0  0  0  0  0
    1.4191    1.6658    1.2921 C   0  0  0  0  0  0  0  0  0  0  0  0
    1.1947    0.6320    0.3113 O   0  0  0  0  0  0  0  0  0  0  0  0
    2.2576   -0.5614    0.1609 P   0  0  0  0  0  0  0  0  0  0  0  0
    4.1272   -0.0660    0.4491 S   0  0  0  0  0  0  0  0  0  0  0  0
    1.8970   -1.1836   -1.2458 O   0  0  0  0  0  0  0  0  0  0  0  0
    2.5832   -0.8005   -2.4563 C   0  0  0  0  0  0  0  0  0  0  0  0
    2.3312    0.6472   -2.8164 C   0  0  0  0  0  0  0  0  0  0  0  0
    1.5120   -2.0614    1.4352 S   0  0  0  0  0  0  0  0  0  0  0  0
   -0.2152   -2.1382    0.8585 C   0  0  0  0  0  0  0  0  0  0  0  0
   -1.2774   -0.8314    1.5270 S   0  0  0  0  0  0  0  0  0  0  0  0
   -1.8391    0.1846   -0.2783 P   0  0  0  0  0  0  0  0  0  0  0  0
   -1.1301   -0.5328   -1.9520 S   0  0  0  0  0  0  0  0  0  0  0  0
   -1.5759    1.7188   -0.0574 O   0  0  0  0  0  0  0  0  0  0  0  0
   -2.2892    2.4766    0.9606 C   0  0  0  0  0  0  0  0  0  0  0  0
   -1.8133    3.9122    0.8933 C   0  0  0  0  0  0  0  0  0  0  0  0
   -3.4333    0.1433   -0.1928 O   0  0  0  0  0  0  0  0  0  0  0  0
   -4.1562   -1.0833   -0.4026 C   0  0  0  0  0  0  0  0  0  0  0  0
   -5.6279   -0.7413   -0.5184 C   0  0  0  0  0  0  0  0  0  0  0  0
    1.2651    3.2036   -0.1947 H   0  0  0  0  0  0  0  0  0  0  0  0
    1.9887    3.7244    1.3439 H   0  0  0  0  0  0  0  0  0  0  0  0
    2.9263    2.7432    0.2117 H   0  0  0  0  0  0  0  0  0  0  0  0
    0.4527    1.8280    1.7720 H   0  0  0  0  0  0  0  0  0  0  0  0
    2.1361    1.3056    2.0368 H   0  0  0  0  0  0  0  0  0  0  0  0
    3.6526   -0.9858   -2.3154 H   0  0  0  0  0  0  0  0  0  0  0  0
    2.1764   -1.4801   -3.2061 H   0  0  0  0  0  0  0  0  0  0  0  0
    1.2615    0.8351   -2.8734 H   0  0  0  0  0  0  0  0  0  0  0  0
    2.7666    1.2970   -2.0586 H   0  0  0  0  0  0  0  0  0  0  0  0
    2.7877    0.8646   -3.7767 H   0  0  0  0  0  0  0  0  0  0  0  0
   -0.5905   -3.0903    1.2233 H   0  0  0  0  0  0  0  0  0  0  0  0
   -0.2354   -2.0873   -0.2329 H   0  0  0  0  0  0  0  0  0  0  0  0
   -3.3570    2.4036    0.7494 H   0  0  0  0  0  0  0  0  0  0  0  0
   -2.0852    2.0213    1.9339 H   0  0  0  0  0  0  0  0  0  0  0  0
   -1.9763    4.3095   -0.1044 H   0  0  0  0  0  0  0  0  0  0  0  0
   -2.3772    4.5018    1.6092 H   0  0  0  0  0  0  0  0  0  0  0  0
   -0.7558    3.9797    1.1289 H   0  0  0  0  0  0  0  0  0  0  0  0
   -3.7813   -1.5577   -1.3156 H   0  0  0  0  0  0  0  0  0  0  0  0
   -3.9668   -1.7431    0.4493 H   0  0  0  0  0  0  0  0  0  0  0  0
   -5.9701   -0.2575    0.3918 H   0  0  0  0  0  0  0  0  0  0  0  0
   -5.7898   -0.0708   -1.3576 H   0  0  0  0  0  0  0  0  0  0  0  0
   -6.1939   -1.6535   -0.6748 H   0  0  0  0  0  0  0  0  0  0  0  0
  1  2  1  0  0  0  0
  2  3  1  0  0  0  0
  3  4  1  0  0  0  0
  4  5  2  0  0  0  0
  4  6  2  0  0  0  0
  6  7  1  0  0  0  0
  7  8  1  0  0  0  0
  4  9  1  0  0  0  0
  9 10  1  0  0  0  0
 10 11  1  0  0  0  0
 11 12  1  0  0  0  0
 12 13  2  0  0  0  0
 12 14  2  0  0  0  0
 14 15  1  0  0  0  0
 15 16  1  0  0  0  0
 12 17  1  0  0  0  0
 17 18  1  0  0  0  0
 18 19  1  0  0  0  0
  1 20  1  0  0  0  0
  1 21  1  0  0  0  0
  1 22  1  0  0  0  0
  2 23  1  0  0  0  0
  2 24  1  0  0  0  0
  7 25  1  0  0  0  0
  7 26  1  0  0  0  0
  8 27  1  0  0  0  0
  8 28  1  0  0  0  0
  8 29  1  0  0  0  0
 10 30  1  0  0  0  0
 10 31  1  0  0  0  0
 15 32  1  0  0  0  0
 15 33  1  0  0  0  0
 16 34  1  0  0  0  0
 16 35  1  0  0  0  0
 16 36  1  0  0  0  0
 18 37  1  0  0  0  0
 18 38  1  0  0  0  0
 19 39  1  0  0  0  0
 19 40  1  0  0  0  0
 19 41  1  0  0  0  0
M  END
