 xtb: 6.7.1 (edcfbbe)
          04032519423D

 20 20  0     0  0            999 V2000
    0.7804    1.6960    0.0158 C   0  0  0  0  0  0  0  0  0  0  0  0
    1.4483    0.3751   -0.4013 C   0  0  0  0  0  0  0  0  0  0  0  0
    1.4464    0.2648   -1.4975 H   0  0  0  0  0  0  0  0  0  0  0  0
    0.6515   -0.7978    0.1855 C   0  0  0  0  0  0  0  0  0  0  0  0
    0.6078   -0.6859    1.2792 H   0  0  0  0  0  0  0  0  0  0  0  0
   -0.7894   -0.7817   -0.3528 C   0  0  0  0  0  0  0  0  0  0  0  0
   -0.7895   -1.1949   -1.3737 H   0  0  0  0  0  0  0  0  0  0  0  0
   -1.2967    0.6861   -0.4042 C   0  0  0  0  0  0  0  0  0  0  0  0
   -1.1936    1.0660   -1.4415 H   0  0  0  0  0  0  0  0  0  0  0  0
   -0.5503    1.5135    0.4551 O   0  0  0  0  0  0  0  0  0  0  0  0
   -2.6181    0.7204   -0.0022 O   0  0  0  0  0  0  0  0  0  0  0  0
   -1.5817   -1.5937    0.4737 O   0  0  0  0  0  0  0  0  0  0  0  0
    1.3260   -1.9818   -0.1607 O   0  0  0  0  0  0  0  0  0  0  0  0
    2.7708    0.3852    0.0690 O   0  0  0  0  0  0  0  0  0  0  0  0
    0.8008    2.4121   -0.8148 H   0  0  0  0  0  0  0  0  0  0  0  0
    1.3226    2.1089    0.8672 H   0  0  0  0  0  0  0  0  0  0  0  0
   -2.8067    1.5844    0.3965 H   0  0  0  0  0  0  0  0  0  0  0  0
   -2.4466   -1.1611    0.5820 H   0  0  0  0  0  0  0  0  0  0  0  0
    0.8329   -2.7369    0.1898 H   0  0  0  0  0  0  0  0  0  0  0  0
    3.1344   -0.5084   -0.0336 H   0  0  0  0  0  0  0  0  0  0  0  0
  1  2  1  0  0  0  0
  2  3  1  0  0  0  0
  2  4  1  0  0  0  0
  4  5  1  0  0  0  0
  4  6  1  0  0  0  0
  6  7  1  0  0  0  0
  6  8  1  0  0  0  0
  8  9  1  0  0  0  0
  1 10  1  0  0  0  0
  8 10  1  0  0  0  0
  8 11  1  0  0  0  0
  6 12  1  0  0  0  0
  4 13  1  0  0  0  0
  2 14  1  0  0  0  0
  1 15  1  0  0  0  0
  1 16  1  0  0  0  0
 11 17  1  0  0  0  0
 12 18  1  0  0  0  0
 13 19  1  0  0  0  0
 14 20  1  0  0  0  0
M  END
