 xtb: 6.7.1 (edcfbbe)
          04032519543D

 10  9  0     0  0            999 V2000
   -1.2749   -0.2654    0.0000 C   0  0  0  0  0  0  0  0  0  0  0  0
    0.0113    0.5659   -0.0000 C   0  0  0  0  0  0  0  0  0  0  0  0
    1.2415   -0.2128   -0.0000 N   0  0  0  0  0  0  0  0  0  0  0  0
   -2.1437    0.3870    0.0001 H   0  0  0  0  0  0  0  0  0  0  0  0
   -1.3180   -0.8997   -0.8837 H   0  0  0  0  0  0  0  0  0  0  0  0
   -1.3178   -0.8995    0.8839 H   0  0  0  0  0  0  0  0  0  0  0  0
    0.0315    1.2090    0.8841 H   0  0  0  0  0  0  0  0  0  0  0  0
    0.0314    1.2087   -0.8843 H   0  0  0  0  0  0  0  0  0  0  0  0
    1.2604   -0.8150    0.8168 H   0  0  0  0  0  0  0  0  0  0  0  0
    1.2602   -0.8153   -0.8165 H   0  0  0  0  0  0  0  0  0  0  0  0
  1  2  1  0  0  0  0
  2  3  1  0  0  0  0
  1  4  1  0  0  0  0
  1  5  1  0  0  0  0
  1  6  1  0  0  0  0
  2  7  1  0  0  0  0
  2  8  1  0  0  0  0
  3  9  1  0  0  0  0
  3 10  1  0  0  0  0
M  END
