 xtb: 6.7.1 (edcfbbe)
          04092505213D

 41 40  0     0  0            999 V2000
    0.4448   -1.3675    2.3032 C   0  0  0  0  0  0  0  0  0  0  0  0
    1.9498   -1.3261    2.4700 C   0  0  0  0  0  0  0  0  0  0  0  0
    2.5497   -0.2459    1.7352 O   0  0  0  0  0  0  0  0  0  0  0  0
    2.5552   -0.1780    0.1461 P   0  0  0  0  0  0  0  0  0  0  0  0
    2.7759   -1.9014   -0.7696 S   0  0  0  0  0  0  0  0  0  0  0  0
    3.6838    0.8990   -0.1269 O   0  0  0  0  0  0  0  0  0  0  0  0
    5.0737    0.5399   -0.2714 C   0  0  0  0  0  0  0  0  0  0  0  0
    5.6685    0.0207    1.0211 C   0  0  0  0  0  0  0  0  0  0  0  0
    0.8969    1.0340   -0.3798 S   0  0  0  0  0  0  0  0  0  0  0  0
    0.1932    0.0147   -1.7078 C   0  0  0  0  0  0  0  0  0  0  0  0
   -1.0946   -1.1242   -1.1391 S   0  0  0  0  0  0  0  0  0  0  0  0
   -2.5165    0.3724   -0.6732 P   0  0  0  0  0  0  0  0  0  0  0  0
   -2.6583    1.8740   -1.9164 S   0  0  0  0  0  0  0  0  0  0  0  0
   -2.0688    0.7717    0.8094 O   0  0  0  0  0  0  0  0  0  0  0  0
   -2.1677    2.1139    1.3096 C   0  0  0  0  0  0  0  0  0  0  0  0
   -3.5923    2.4339    1.7149 C   0  0  0  0  0  0  0  0  0  0  0  0
   -3.8844   -0.4152   -0.5658 O   0  0  0  0  0  0  0  0  0  0  0  0
   -4.0477   -1.7590   -0.0527 C   0  0  0  0  0  0  0  0  0  0  0  0
   -3.7150   -1.8590    1.4209 C   0  0  0  0  0  0  0  0  0  0  0  0
    0.0098   -0.3963    2.5279 H   0  0  0  0  0  0  0  0  0  0  0  0
    0.1935   -1.6377    1.2777 H   0  0  0  0  0  0  0  0  0  0  0  0
    0.0283   -2.1135    2.9727 H   0  0  0  0  0  0  0  0  0  0  0  0
    2.3957   -2.2663    2.1301 H   0  0  0  0  0  0  0  0  0  0  0  0
    2.2367   -1.1292    3.5039 H   0  0  0  0  0  0  0  0  0  0  0  0
    5.1550   -0.2116   -1.0633 H   0  0  0  0  0  0  0  0  0  0  0  0
    5.5486    1.4684   -0.5913 H   0  0  0  0  0  0  0  0  0  0  0  0
    5.2166   -0.9354    1.2812 H   0  0  0  0  0  0  0  0  0  0  0  0
    6.7375   -0.1182    0.8936 H   0  0  0  0  0  0  0  0  0  0  0  0
    5.4879    0.7268    1.8272 H   0  0  0  0  0  0  0  0  0  0  0  0
    0.9746   -0.6032   -2.1499 H   0  0  0  0  0  0  0  0  0  0  0  0
   -0.2396    0.6991   -2.4369 H   0  0  0  0  0  0  0  0  0  0  0  0
   -1.4845    2.1417    2.1595 H   0  0  0  0  0  0  0  0  0  0  0  0
   -1.8180    2.8066    0.5374 H   0  0  0  0  0  0  0  0  0  0  0  0
   -3.9350    1.7374    2.4752 H   0  0  0  0  0  0  0  0  0  0  0  0
   -3.6406    3.4459    2.1039 H   0  0  0  0  0  0  0  0  0  0  0  0
   -4.2433    2.3561    0.8443 H   0  0  0  0  0  0  0  0  0  0  0  0
   -5.0996   -1.9749   -0.2465 H   0  0  0  0  0  0  0  0  0  0  0  0
   -3.4169   -2.4302   -0.6418 H   0  0  0  0  0  0  0  0  0  0  0  0
   -2.6646   -1.6289    1.5842 H   0  0  0  0  0  0  0  0  0  0  0  0
   -4.3236   -1.1633    1.9925 H   0  0  0  0  0  0  0  0  0  0  0  0
   -3.9137   -2.8707    1.7601 H   0  0  0  0  0  0  0  0  0  0  0  0
  1  2  1  0  0  0  0
  2  3  1  0  0  0  0
  3  4  2  0  0  0  0
  4  5  2  0  0  0  0
  4  6  2  0  0  0  0
  6  7  1  0  0  0  0
  7  8  1  0  0  0  0
  4  9  1  0  0  0  0
  9 10  1  0  0  0  0
 10 11  1  0  0  0  0
 11 12  1  0  0  0  0
 12 13  2  0  0  0  0
 12 14  1  0  0  0  0
 14 15  1  0  0  0  0
 15 16  1  0  0  0  0
 12 17  2  0  0  0  0
 17 18  1  0  0  0  0
 18 19  1  0  0  0  0
  1 20  1  0  0  0  0
  1 21  1  0  0  0  0
  1 22  1  0  0  0  0
  2 23  1  0  0  0  0
  2 24  1  0  0  0  0
  7 25  1  0  0  0  0
  7 26  1  0  0  0  0
  8 27  1  0  0  0  0
  8 28  1  0  0  0  0
  8 29  1  0  0  0  0
 10 30  1  0  0  0  0
 10 31  1  0  0  0  0
 15 32  1  0  0  0  0
 15 33  1  0  0  0  0
 16 34  1  0  0  0  0
 16 35  1  0  0  0  0
 16 36  1  0  0  0  0
 18 37  1  0  0  0  0
 18 38  1  0  0  0  0
 19 39  1  0  0  0  0
 19 40  1  0  0  0  0
 19 41  1  0  0  0  0
M  END
