 xtb: 6.7.1 (edcfbbe)
          04092507313D

 38 37  0     0  0            999 V2000
    3.3162   -3.4107    0.1049 C   0  0  0  0  0  0  0  0  0  0  0  0
    2.9540   -2.0575    0.6958 C   0  0  0  0  0  0  0  0  0  0  0  0
    2.7194   -1.0834   -0.3389 O   0  0  0  0  0  0  0  0  0  0  0  0
    1.5538   -1.0725   -0.9461 C   0  0  0  0  0  0  0  0  0  0  0  0
    0.6321   -1.8242   -0.6963 O   0  0  0  0  0  0  0  0  0  0  0  0
    1.4755    0.0112   -2.0009 C   0  0  0  0  0  0  0  0  0  0  0  0
    0.3295    0.9749   -1.6937 C   0  0  0  0  0  0  0  0  0  0  0  0
    0.2337    1.6992   -2.5089 H   0  0  0  0  0  0  0  0  0  0  0  0
    0.5063    1.7507   -0.4009 C   0  0  0  0  0  0  0  0  0  0  0  0
   -0.4398    2.0811    0.2871 O   0  0  0  0  0  0  0  0  0  0  0  0
    1.7586    2.0112   -0.1429 O   0  0  0  0  0  0  0  0  0  0  0  0
    2.0717    2.7366    1.0652 C   0  0  0  0  0  0  0  0  0  0  0  0
    1.8925    4.2323    0.8678 C   0  0  0  0  0  0  0  0  0  0  0  0
   -1.3021    0.1555   -1.6345 S   0  0  0  0  0  0  0  0  0  0  0  0
   -1.6124   -0.2839    0.4301 P   0  0  0  0  0  0  0  0  0  0  0  0
   -0.2574   -0.4590    1.8369 S   0  0  0  0  0  0  0  0  0  0  0  0
   -2.7398    0.7133    0.9252 O   0  0  0  0  0  0  0  0  0  0  0  0
   -3.9444    0.9820    0.1881 C   0  0  0  0  0  0  0  0  0  0  0  0
   -2.5208   -1.6001    0.2789 O   0  0  0  0  0  0  0  0  0  0  0  0
   -2.0232   -2.9103    0.0098 C   0  0  0  0  0  0  0  0  0  0  0  0
    3.5506   -4.0987    0.9102 H   0  0  0  0  0  0  0  0  0  0  0  0
    2.4791   -3.8078   -0.4646 H   0  0  0  0  0  0  0  0  0  0  0  0
    4.1787   -3.3141   -0.5488 H   0  0  0  0  0  0  0  0  0  0  0  0
    3.7789   -1.6405    1.2729 H   0  0  0  0  0  0  0  0  0  0  0  0
    2.0583   -2.1228    1.3211 H   0  0  0  0  0  0  0  0  0  0  0  0
    1.2791   -0.4624   -2.9637 H   0  0  0  0  0  0  0  0  0  0  0  0
    2.4189    0.5546   -2.0264 H   0  0  0  0  0  0  0  0  0  0  0  0
    1.4293    2.3625    1.8680 H   0  0  0  0  0  0  0  0  0  0  0  0
    3.1118    2.4787    1.2628 H   0  0  0  0  0  0  0  0  0  0  0  0
    0.8467    4.4631    0.6773 H   0  0  0  0  0  0  0  0  0  0  0  0
    2.2061    4.7485    1.7689 H   0  0  0  0  0  0  0  0  0  0  0  0
    2.4935    4.5743    0.0298 H   0  0  0  0  0  0  0  0  0  0  0  0
   -4.5387    0.0734    0.1048 H   0  0  0  0  0  0  0  0  0  0  0  0
   -3.6991    1.3629   -0.8035 H   0  0  0  0  0  0  0  0  0  0  0  0
   -4.4666    1.7366    0.7705 H   0  0  0  0  0  0  0  0  0  0  0  0
   -2.8607   -3.5800    0.1892 H   0  0  0  0  0  0  0  0  0  0  0  0
   -1.1935   -3.1410    0.6780 H   0  0  0  0  0  0  0  0  0  0  0  0
   -1.6824   -2.9763   -1.0223 H   0  0  0  0  0  0  0  0  0  0  0  0
  1  2  1  0  0  0  0
  2  3  1  0  0  0  0
  3  4  4  0  0  0  0
  4  5  2  0  0  0  0
  4  6  1  0  0  0  0
  6  7  1  0  0  0  0
  7  8  1  0  0  0  0
  7  9  1  0  0  0  0
  9 10  2  0  0  0  0
  9 11  4  0  0  0  0
 11 12  1  0  0  0  0
 12 13  1  0  0  0  0
  7 14  1  0  0  0  0
 14 15  1  0  0  0  0
 15 16  2  0  0  0  0
 15 17  2  0  0  0  0
 17 18  1  0  0  0  0
 15 19  1  0  0  0  0
 19 20  1  0  0  0  0
  1 21  1  0  0  0  0
  1 22  1  0  0  0  0
  1 23  1  0  0  0  0
  2 24  1  0  0  0  0
  2 25  1  0  0  0  0
  6 26  1  0  0  0  0
  6 27  1  0  0  0  0
 12 28  1  0  0  0  0
 12 29  1  0  0  0  0
 13 30  1  0  0  0  0
 13 31  1  0  0  0  0
 13 32  1  0  0  0  0
 18 33  1  0  0  0  0
 18 34  1  0  0  0  0
 18 35  1  0  0  0  0
 20 36  1  0  0  0  0
 20 37  1  0  0  0  0
 20 38  1  0  0  0  0
M  END
