 xtb: 6.7.1 (edcfbbe)
          04092505213D

 41 40  0     0  0            999 V2000
    3.7896    0.3918   -2.6800 C   0  0  0  0  0  0  0  0  0  0  0  0
    4.4404   -0.2292   -1.4616 C   0  0  0  0  0  0  0  0  0  0  0  0
    3.7543    0.0846   -0.2356 O   0  0  0  0  0  0  0  0  0  0  0  0
    2.1921   -0.0597    0.0136 P   0  0  0  0  0  0  0  0  0  0  0  0
    1.0955    1.4340   -0.6517 S   0  0  0  0  0  0  0  0  0  0  0  0
    2.1271   -0.2614    1.5838 O   0  0  0  0  0  0  0  0  0  0  0  0
    1.9905    0.8371    2.5027 C   0  0  0  0  0  0  0  0  0  0  0  0
    3.2606    1.6565    2.5721 C   0  0  0  0  0  0  0  0  0  0  0  0
    1.8116   -2.0306   -0.6323 S   0  0  0  0  0  0  0  0  0  0  0  0
    0.0739   -2.2158   -0.1580 C   0  0  0  0  0  0  0  0  0  0  0  0
   -1.1014   -1.4847   -1.3463 S   0  0  0  0  0  0  0  0  0  0  0  0
   -2.0465   -0.0229   -0.1462 P   0  0  0  0  0  0  0  0  0  0  0  0
   -1.3844    0.0869    1.7035 S   0  0  0  0  0  0  0  0  0  0  0  0
   -3.5995   -0.3749   -0.2457 O   0  0  0  0  0  0  0  0  0  0  0  0
   -4.2199   -1.3853    0.5727 C   0  0  0  0  0  0  0  0  0  0  0  0
   -4.9759   -0.7457    1.7213 C   0  0  0  0  0  0  0  0  0  0  0  0
   -1.9723    1.2236   -1.1057 O   0  0  0  0  0  0  0  0  0  0  0  0
   -2.9173    2.3165   -1.1040 C   0  0  0  0  0  0  0  0  0  0  0  0
   -2.9422    3.0444    0.2235 C   0  0  0  0  0  0  0  0  0  0  0  0
    4.3910    0.1800   -3.5582 H   0  0  0  0  0  0  0  0  0  0  0  0
    2.7924   -0.0233   -2.8252 H   0  0  0  0  0  0  0  0  0  0  0  0
    3.6982    1.4685   -2.5555 H   0  0  0  0  0  0  0  0  0  0  0  0
    5.4453    0.1655   -1.3013 H   0  0  0  0  0  0  0  0  0  0  0  0
    4.4788   -1.3179   -1.5565 H   0  0  0  0  0  0  0  0  0  0  0  0
    1.1423    1.4544    2.1881 H   0  0  0  0  0  0  0  0  0  0  0  0
    1.7529    0.3578    3.4533 H   0  0  0  0  0  0  0  0  0  0  0  0
    4.1030    1.0196    2.8279 H   0  0  0  0  0  0  0  0  0  0  0  0
    3.4496    2.1172    1.6029 H   0  0  0  0  0  0  0  0  0  0  0  0
    3.1487    2.4336    3.3215 H   0  0  0  0  0  0  0  0  0  0  0  0
   -0.0884   -1.7605    0.8240 H   0  0  0  0  0  0  0  0  0  0  0  0
   -0.1058   -3.2871   -0.1359 H   0  0  0  0  0  0  0  0  0  0  0  0
   -4.8917   -1.9202   -0.1008 H   0  0  0  0  0  0  0  0  0  0  0  0
   -3.4547   -2.0708    0.9474 H   0  0  0  0  0  0  0  0  0  0  0  0
   -4.2824   -0.2331    2.3847 H   0  0  0  0  0  0  0  0  0  0  0  0
   -5.6986   -0.0290    1.3416 H   0  0  0  0  0  0  0  0  0  0  0  0
   -5.4944   -1.5172    2.2810 H   0  0  0  0  0  0  0  0  0  0  0  0
   -2.5542    2.9601   -1.9070 H   0  0  0  0  0  0  0  0  0  0  0  0
   -3.9027    1.9186   -1.3561 H   0  0  0  0  0  0  0  0  0  0  0  0
   -3.2979    2.3786    1.0092 H   0  0  0  0  0  0  0  0  0  0  0  0
   -1.9399    3.3803    0.4819 H   0  0  0  0  0  0  0  0  0  0  0  0
   -3.6038    3.9021    0.1560 H   0  0  0  0  0  0  0  0  0  0  0  0
  1  2  1  0  0  0  0
  2  3  1  0  0  0  0
  3  4  2  0  0  0  0
  4  5  2  0  0  0  0
  4  6  2  0  0  0  0
  6  7  1  0  0  0  0
  7  8  1  0  0  0  0
  4  9  1  0  0  0  0
  9 10  1  0  0  0  0
 10 11  1  0  0  0  0
 11 12  1  0  0  0  0
 12 13  2  0  0  0  0
 12 14  2  0  0  0  0
 14 15  1  0  0  0  0
 15 16  1  0  0  0  0
 12 17  2  0  0  0  0
 17 18  1  0  0  0  0
 18 19  1  0  0  0  0
  1 20  1  0  0  0  0
  1 21  1  0  0  0  0
  1 22  1  0  0  0  0
  2 23  1  0  0  0  0
  2 24  1  0  0  0  0
  7 25  1  0  0  0  0
  7 26  1  0  0  0  0
  8 27  1  0  0  0  0
  8 28  1  0  0  0  0
  8 29  1  0  0  0  0
 10 30  1  0  0  0  0
 10 31  1  0  0  0  0
 15 32  1  0  0  0  0
 15 33  1  0  0  0  0
 16 34  1  0  0  0  0
 16 35  1  0  0  0  0
 16 36  1  0  0  0  0
 18 37  1  0  0  0  0
 18 38  1  0  0  0  0
 19 39  1  0  0  0  0
 19 40  1  0  0  0  0
 19 41  1  0  0  0  0
M  END
