 xtb: 6.7.1 (edcfbbe)
          04092505203D

 41 40  0     0  0            999 V2000
    5.4215   -1.0063   -1.2838 C   0  0  0  0  0  0  0  0  0  0  0  0
    4.0235   -1.4528   -1.6670 C   0  0  0  0  0  0  0  0  0  0  0  0
    3.1743   -1.5572   -0.5072 O   0  0  0  0  0  0  0  0  0  0  0  0
    2.2931   -0.3497    0.0280 P   0  0  0  0  0  0  0  0  0  0  0  0
    3.2168    1.3200    0.4974 S   0  0  0  0  0  0  0  0  0  0  0  0
    1.5103   -1.0429    1.2137 O   0  0  0  0  0  0  0  0  0  0  0  0
    1.9317   -0.8945    2.5877 C   0  0  0  0  0  0  0  0  0  0  0  0
    3.2008   -1.6743    2.8557 C   0  0  0  0  0  0  0  0  0  0  0  0
    0.7941   -0.1653   -1.4567 S   0  0  0  0  0  0  0  0  0  0  0  0
    0.1101    1.3965   -0.8394 C   0  0  0  0  0  0  0  0  0  0  0  0
   -0.9455    1.1710    0.6064 S   0  0  0  0  0  0  0  0  0  0  0  0
   -2.5882    0.3020   -0.4518 P   0  0  0  0  0  0  0  0  0  0  0  0
   -2.9079    1.0934   -2.2144 S   0  0  0  0  0  0  0  0  0  0  0  0
   -3.8013    0.3601    0.5707 O   0  0  0  0  0  0  0  0  0  0  0  0
   -4.6802    1.4974    0.6612 C   0  0  0  0  0  0  0  0  0  0  0  0
   -3.9732    2.7345    1.1745 C   0  0  0  0  0  0  0  0  0  0  0  0
   -2.3055   -1.2471   -0.5614 O   0  0  0  0  0  0  0  0  0  0  0  0
   -2.5843   -2.2407    0.4543 C   0  0  0  0  0  0  0  0  0  0  0  0
   -1.7535   -2.0384    1.7034 C   0  0  0  0  0  0  0  0  0  0  0  0
    5.3955   -0.0079   -0.8528 H   0  0  0  0  0  0  0  0  0  0  0  0
    5.8464   -1.6918   -0.5560 H   0  0  0  0  0  0  0  0  0  0  0  0
    6.0470   -0.9915   -2.1705 H   0  0  0  0  0  0  0  0  0  0  0  0
    4.0301   -2.4595   -2.0893 H   0  0  0  0  0  0  0  0  0  0  0  0
    3.5711   -0.7617   -2.3844 H   0  0  0  0  0  0  0  0  0  0  0  0
    2.0777    0.1707    2.7932 H   0  0  0  0  0  0  0  0  0  0  0  0
    1.0884   -1.2705    3.1679 H   0  0  0  0  0  0  0  0  0  0  0  0
    4.0174   -1.2559    2.2683 H   0  0  0  0  0  0  0  0  0  0  0  0
    3.4517   -1.6069    3.9095 H   0  0  0  0  0  0  0  0  0  0  0  0
    3.0681   -2.7165    2.5782 H   0  0  0  0  0  0  0  0  0  0  0  0
   -0.4787    1.8256   -1.6512 H   0  0  0  0  0  0  0  0  0  0  0  0
    0.9272    2.0569   -0.5456 H   0  0  0  0  0  0  0  0  0  0  0  0
   -5.1063    1.6823   -0.3295 H   0  0  0  0  0  0  0  0  0  0  0  0
   -5.4608    1.1652    1.3470 H   0  0  0  0  0  0  0  0  0  0  0  0
   -3.4522    2.5181    2.1036 H   0  0  0  0  0  0  0  0  0  0  0  0
   -3.2495    3.0824    0.4390 H   0  0  0  0  0  0  0  0  0  0  0  0
   -4.7042    3.5185    1.3446 H   0  0  0  0  0  0  0  0  0  0  0  0
   -3.6513   -2.2062    0.6822 H   0  0  0  0  0  0  0  0  0  0  0  0
   -2.3385   -3.1794   -0.0449 H   0  0  0  0  0  0  0  0  0  0  0  0
   -1.9401   -2.8586    2.3897 H   0  0  0  0  0  0  0  0  0  0  0  0
   -0.6965   -2.0158    1.4491 H   0  0  0  0  0  0  0  0  0  0  0  0
   -2.0212   -1.1000    2.1860 H   0  0  0  0  0  0  0  0  0  0  0  0
  1  2  1  0  0  0  0
  2  3  1  0  0  0  0
  3  4  2  0  0  0  0
  4  5  2  0  0  0  0
  4  6  2  0  0  0  0
  6  7  1  0  0  0  0
  7  8  1  0  0  0  0
  4  9  1  0  0  0  0
  9 10  1  0  0  0  0
 10 11  1  0  0  0  0
 11 12  1  0  0  0  0
 12 13  2  0  0  0  0
 12 14  2  0  0  0  0
 14 15  1  0  0  0  0
 15 16  1  0  0  0  0
 12 17  2  0  0  0  0
 17 18  1  0  0  0  0
 18 19  1  0  0  0  0
  1 20  1  0  0  0  0
  1 21  1  0  0  0  0
  1 22  1  0  0  0  0
  2 23  1  0  0  0  0
  2 24  1  0  0  0  0
  7 25  1  0  0  0  0
  7 26  1  0  0  0  0
  8 27  1  0  0  0  0
  8 28  1  0  0  0  0
  8 29  1  0  0  0  0
 10 30  1  0  0  0  0
 10 31  1  0  0  0  0
 15 32  1  0  0  0  0
 15 33  1  0  0  0  0
 16 34  1  0  0  0  0
 16 35  1  0  0  0  0
 16 36  1  0  0  0  0
 18 37  1  0  0  0  0
 18 38  1  0  0  0  0
 19 39  1  0  0  0  0
 19 40  1  0  0  0  0
 19 41  1  0  0  0  0
M  END
