 xtb: 6.7.1 (edcfbbe)
          04092507313D

 38 37  0     0  0            999 V2000
    5.6628   -1.4984   -0.2592 C   0  0  0  0  0  0  0  0  0  0  0  0
    4.8170   -1.6726   -1.5103 C   0  0  0  0  0  0  0  0  0  0  0  0
    3.4757   -2.0802   -1.1712 O   0  0  0  0  0  0  0  0  0  0  0  0
    2.5920   -1.1540   -0.8722 C   0  0  0  0  0  0  0  0  0  0  0  0
    2.8051    0.0415   -0.8994 O   0  0  0  0  0  0  0  0  0  0  0  0
    1.2605   -1.7538   -0.4747 C   0  0  0  0  0  0  0  0  0  0  0  0
    0.1960   -0.6712   -0.5359 C   0  0  0  0  0  0  0  0  0  0  0  0
   -0.0470   -0.3827   -1.5629 H   0  0  0  0  0  0  0  0  0  0  0  0
    0.5994    0.5803    0.2214 C   0  0  0  0  0  0  0  0  0  0  0  0
    0.3736    1.6969   -0.1928 O   0  0  0  0  0  0  0  0  0  0  0  0
    1.0843    0.2961    1.4122 O   0  0  0  0  0  0  0  0  0  0  0  0
    1.5092    1.3826    2.2575 C   0  0  0  0  0  0  0  0  0  0  0  0
    3.0116    1.5797    2.1414 C   0  0  0  0  0  0  0  0  0  0  0  0
   -1.3419   -1.2448    0.2632 S   0  0  0  0  0  0  0  0  0  0  0  0
   -2.4976    0.5020   -0.1000 P   0  0  0  0  0  0  0  0  0  0  0  0
   -2.3790    1.2555   -1.8986 S   0  0  0  0  0  0  0  0  0  0  0  0
   -3.9564    0.0111    0.3232 O   0  0  0  0  0  0  0  0  0  0  0  0
   -4.6940   -0.9057   -0.4962 C   0  0  0  0  0  0  0  0  0  0  0  0
   -2.1849    1.5224    1.0689 O   0  0  0  0  0  0  0  0  0  0  0  0
   -2.4051    1.1819    2.4553 C   0  0  0  0  0  0  0  0  0  0  0  0
    5.2723   -0.6827    0.3453 H   0  0  0  0  0  0  0  0  0  0  0  0
    5.6548   -2.4124    0.3278 H   0  0  0  0  0  0  0  0  0  0  0  0
    6.6827   -1.2649   -0.5461 H   0  0  0  0  0  0  0  0  0  0  0  0
    5.1942   -2.4799   -2.1376 H   0  0  0  0  0  0  0  0  0  0  0  0
    4.7655   -0.7392   -2.0781 H   0  0  0  0  0  0  0  0  0  0  0  0
    1.3520   -2.1275    0.5482 H   0  0  0  0  0  0  0  0  0  0  0  0
    1.0159   -2.5916   -1.1259 H   0  0  0  0  0  0  0  0  0  0  0  0
    0.9709    2.2858    1.9557 H   0  0  0  0  0  0  0  0  0  0  0  0
    1.2226    1.0817    3.2662 H   0  0  0  0  0  0  0  0  0  0  0  0
    3.5339    0.6891    2.4799 H   0  0  0  0  0  0  0  0  0  0  0  0
    3.2763    1.7698    1.1028 H   0  0  0  0  0  0  0  0  0  0  0  0
    3.3134    2.4272    2.7477 H   0  0  0  0  0  0  0  0  0  0  0  0
   -5.7207   -0.8513   -0.1437 H   0  0  0  0  0  0  0  0  0  0  0  0
   -4.2944   -1.9113   -0.3715 H   0  0  0  0  0  0  0  0  0  0  0  0
   -4.6320   -0.6047   -1.5429 H   0  0  0  0  0  0  0  0  0  0  0  0
   -1.9575    1.9948    3.0214 H   0  0  0  0  0  0  0  0  0  0  0  0
   -1.9232    0.2317    2.6890 H   0  0  0  0  0  0  0  0  0  0  0  0
   -3.4736    1.1160    2.6482 H   0  0  0  0  0  0  0  0  0  0  0  0
  1  2  1  0  0  0  0
  2  3  1  0  0  0  0
  3  4  4  0  0  0  0
  4  5  2  0  0  0  0
  4  6  1  0  0  0  0
  6  7  1  0  0  0  0
  7  8  1  0  0  0  0
  7  9  1  0  0  0  0
  9 10  2  0  0  0  0
  9 11  1  0  0  0  0
 11 12  1  0  0  0  0
 12 13  1  0  0  0  0
  7 14  1  0  0  0  0
 14 15  1  0  0  0  0
 15 16  2  0  0  0  0
 15 17  2  0  0  0  0
 17 18  1  0  0  0  0
 15 19  2  0  0  0  0
 19 20  1  0  0  0  0
  1 21  1  0  0  0  0
  1 22  1  0  0  0  0
  1 23  1  0  0  0  0
  2 24  1  0  0  0  0
  2 25  1  0  0  0  0
  6 26  1  0  0  0  0
  6 27  1  0  0  0  0
 12 28  1  0  0  0  0
 12 29  1  0  0  0  0
 13 30  1  0  0  0  0
 13 31  1  0  0  0  0
 13 32  1  0  0  0  0
 18 33  1  0  0  0  0
 18 34  1  0  0  0  0
 18 35  1  0  0  0  0
 20 36  1  0  0  0  0
 20 37  1  0  0  0  0
 20 38  1  0  0  0  0
M  END
