 xtb: 6.7.1 (edcfbbe)
          04092505203D

 41 40  0     0  0            999 V2000
    4.5321   -1.7469   -1.3063 C   0  0  0  0  0  0  0  0  0  0  0  0
    4.7434   -0.3870   -0.6723 C   0  0  0  0  0  0  0  0  0  0  0  0
    3.7129   -0.0626    0.2752 O   0  0  0  0  0  0  0  0  0  0  0  0
    2.2108    0.2297   -0.1588 P   0  0  0  0  0  0  0  0  0  0  0  0
    2.0303    1.2103   -1.8528 S   0  0  0  0  0  0  0  0  0  0  0  0
    1.6359    0.9054    1.1546 O   0  0  0  0  0  0  0  0  0  0  0  0
    1.7160    2.3205    1.4079 C   0  0  0  0  0  0  0  0  0  0  0  0
    3.1451    2.8134    1.4809 C   0  0  0  0  0  0  0  0  0  0  0  0
    1.3046   -1.6643   -0.0178 S   0  0  0  0  0  0  0  0  0  0  0  0
   -0.1392   -1.4412   -1.1186 C   0  0  0  0  0  0  0  0  0  0  0  0
   -1.7056   -1.7985   -0.2916 S   0  0  0  0  0  0  0  0  0  0  0  0
   -2.4269    0.1715    0.1121 P   0  0  0  0  0  0  0  0  0  0  0  0
   -1.2453    1.6678   -0.3196 S   0  0  0  0  0  0  0  0  0  0  0  0
   -2.9508    0.1163    1.6172 O   0  0  0  0  0  0  0  0  0  0  0  0
   -2.1222    0.3936    2.7571 C   0  0  0  0  0  0  0  0  0  0  0  0
   -1.0637   -0.6683    2.9778 C   0  0  0  0  0  0  0  0  0  0  0  0
   -3.7848    0.2659   -0.6784 O   0  0  0  0  0  0  0  0  0  0  0  0
   -4.8261   -0.7436   -0.5835 C   0  0  0  0  0  0  0  0  0  0  0  0
   -4.9665   -1.4625   -1.9099 C   0  0  0  0  0  0  0  0  0  0  0  0
    3.6503   -1.7246   -1.9451 H   0  0  0  0  0  0  0  0  0  0  0  0
    5.3975   -1.9995   -1.9105 H   0  0  0  0  0  0  0  0  0  0  0  0
    4.3912   -2.5040   -0.5390 H   0  0  0  0  0  0  0  0  0  0  0  0
    4.7648    0.3934   -1.4401 H   0  0  0  0  0  0  0  0  0  0  0  0
    5.6604   -0.3553   -0.0825 H   0  0  0  0  0  0  0  0  0  0  0  0
    1.1588    2.8409    0.6216 H   0  0  0  0  0  0  0  0  0  0  0  0
    1.1973    2.4410    2.3602 H   0  0  0  0  0  0  0  0  0  0  0  0
    3.6179    2.7261    0.5032 H   0  0  0  0  0  0  0  0  0  0  0  0
    3.1487    3.8566    1.7810 H   0  0  0  0  0  0  0  0  0  0  0  0
    3.7081    2.2243    2.2003 H   0  0  0  0  0  0  0  0  0  0  0  0
   -0.0457   -2.1577   -1.9296 H   0  0  0  0  0  0  0  0  0  0  0  0
   -0.1405   -0.4137   -1.4917 H   0  0  0  0  0  0  0  0  0  0  0  0
   -1.6617    1.3769    2.6170 H   0  0  0  0  0  0  0  0  0  0  0  0
   -2.8305    0.4313    3.5864 H   0  0  0  0  0  0  0  0  0  0  0  0
   -0.3005   -0.6111    2.2029 H   0  0  0  0  0  0  0  0  0  0  0  0
   -0.5876   -0.5051    3.9394 H   0  0  0  0  0  0  0  0  0  0  0  0
   -1.5101   -1.6594    2.9615 H   0  0  0  0  0  0  0  0  0  0  0  0
   -4.5805   -1.4378    0.2226 H   0  0  0  0  0  0  0  0  0  0  0  0
   -5.7326   -0.1919   -0.3306 H   0  0  0  0  0  0  0  0  0  0  0  0
   -5.1353   -0.7425   -2.7058 H   0  0  0  0  0  0  0  0  0  0  0  0
   -4.0658   -2.0292   -2.1317 H   0  0  0  0  0  0  0  0  0  0  0  0
   -5.8104   -2.1429   -1.8565 H   0  0  0  0  0  0  0  0  0  0  0  0
  1  2  1  0  0  0  0
  2  3  1  0  0  0  0
  3  4  2  0  0  0  0
  4  5  2  0  0  0  0
  4  6  2  0  0  0  0
  6  7  1  0  0  0  0
  7  8  1  0  0  0  0
  4  9  1  0  0  0  0
  9 10  1  0  0  0  0
 10 11  1  0  0  0  0
 11 12  1  0  0  0  0
 12 13  2  0  0  0  0
 12 14  2  0  0  0  0
 14 15  1  0  0  0  0
 15 16  1  0  0  0  0
 12 17  2  0  0  0  0
 17 18  1  0  0  0  0
 18 19  1  0  0  0  0
  1 20  1  0  0  0  0
  1 21  1  0  0  0  0
  1 22  1  0  0  0  0
  2 23  1  0  0  0  0
  2 24  1  0  0  0  0
  7 25  1  0  0  0  0
  7 26  1  0  0  0  0
  8 27  1  0  0  0  0
  8 28  1  0  0  0  0
  8 29  1  0  0  0  0
 10 30  1  0  0  0  0
 10 31  1  0  0  0  0
 15 32  1  0  0  0  0
 15 33  1  0  0  0  0
 16 34  1  0  0  0  0
 16 35  1  0  0  0  0
 16 36  1  0  0  0  0
 18 37  1  0  0  0  0
 18 38  1  0  0  0  0
 19 39  1  0  0  0  0
 19 40  1  0  0  0  0
 19 41  1  0  0  0  0
M  END
