 xtb: 6.7.1 (edcfbbe)
          04092505213D

 41 40  0     0  0            999 V2000
    5.2202   -2.5026   -0.8393 C   0  0  0  0  0  0  0  0  0  0  0  0
    4.1487   -1.5267   -1.2807 C   0  0  0  0  0  0  0  0  0  0  0  0
    3.3922   -1.1445   -0.1115 O   0  0  0  0  0  0  0  0  0  0  0  0
    2.4206    0.1094   -0.1380 P   0  0  0  0  0  0  0  0  0  0  0  0
    3.2069    1.7964   -0.7316 S   0  0  0  0  0  0  0  0  0  0  0  0
    1.8945    0.1700    1.3425 O   0  0  0  0  0  0  0  0  0  0  0  0
    1.4014   -0.9951    2.0508 C   0  0  0  0  0  0  0  0  0  0  0  0
    2.4465   -1.4960    3.0254 C   0  0  0  0  0  0  0  0  0  0  0  0
    0.7973   -0.6039   -1.3395 S   0  0  0  0  0  0  0  0  0  0  0  0
    0.0890    1.0223   -1.6818 C   0  0  0  0  0  0  0  0  0  0  0  0
   -0.5609    1.8214   -0.1881 S   0  0  0  0  0  0  0  0  0  0  0  0
   -2.2644    0.5838    0.0000 P   0  0  0  0  0  0  0  0  0  0  0  0
   -3.1777    0.1421   -1.6804 S   0  0  0  0  0  0  0  0  0  0  0  0
   -2.9852    1.5068    1.0665 O   0  0  0  0  0  0  0  0  0  0  0  0
   -4.0983    1.0635    1.8738 C   0  0  0  0  0  0  0  0  0  0  0  0
   -5.4025    1.0936    1.1017 C   0  0  0  0  0  0  0  0  0  0  0  0
   -1.8165   -0.6876    0.8528 O   0  0  0  0  0  0  0  0  0  0  0  0
   -1.9405   -2.0474    0.3898 C   0  0  0  0  0  0  0  0  0  0  0  0
   -3.2488   -2.6493    0.8622 C   0  0  0  0  0  0  0  0  0  0  0  0
    5.7958   -2.8127   -1.7051 H   0  0  0  0  0  0  0  0  0  0  0  0
    5.8832   -2.0296   -0.1204 H   0  0  0  0  0  0  0  0  0  0  0  0
    4.7638   -3.3747   -0.3804 H   0  0  0  0  0  0  0  0  0  0  0  0
    3.4603   -1.9829   -1.9970 H   0  0  0  0  0  0  0  0  0  0  0  0
    4.5821   -0.6244   -1.7238 H   0  0  0  0  0  0  0  0  0  0  0  0
    0.5009   -0.6502    2.5636 H   0  0  0  0  0  0  0  0  0  0  0  0
    1.1413   -1.7663    1.3206 H   0  0  0  0  0  0  0  0  0  0  0  0
    2.0395   -2.3307    3.5874 H   0  0  0  0  0  0  0  0  0  0  0  0
    3.3328   -1.8210    2.4867 H   0  0  0  0  0  0  0  0  0  0  0  0
    2.7256   -0.7014    3.7117 H   0  0  0  0  0  0  0  0  0  0  0  0
   -0.7167    0.8766   -2.4027 H   0  0  0  0  0  0  0  0  0  0  0  0
    0.8664    1.6762   -2.0766 H   0  0  0  0  0  0  0  0  0  0  0  0
   -3.8838    0.0595    2.2488 H   0  0  0  0  0  0  0  0  0  0  0  0
   -4.1132    1.7711    2.7048 H   0  0  0  0  0  0  0  0  0  0  0  0
   -5.5851    2.0922    0.7136 H   0  0  0  0  0  0  0  0  0  0  0  0
   -5.3660    0.4015    0.2626 H   0  0  0  0  0  0  0  0  0  0  0  0
   -6.2166    0.8103    1.7614 H   0  0  0  0  0  0  0  0  0  0  0  0
   -1.8788   -2.0631   -0.7021 H   0  0  0  0  0  0  0  0  0  0  0  0
   -1.0822   -2.5699    0.8132 H   0  0  0  0  0  0  0  0  0  0  0  0
   -3.2930   -3.6885    0.5530 H   0  0  0  0  0  0  0  0  0  0  0  0
   -3.3239   -2.5944    1.9448 H   0  0  0  0  0  0  0  0  0  0  0  0
   -4.0854   -2.1147    0.4162 H   0  0  0  0  0  0  0  0  0  0  0  0
  1  2  1  0  0  0  0
  2  3  1  0  0  0  0
  3  4  2  0  0  0  0
  4  5  2  0  0  0  0
  4  6  2  0  0  0  0
  6  7  1  0  0  0  0
  7  8  1  0  0  0  0
  4  9  1  0  0  0  0
  9 10  1  0  0  0  0
 10 11  1  0  0  0  0
 11 12  1  0  0  0  0
 12 13  2  0  0  0  0
 12 14  2  0  0  0  0
 14 15  1  0  0  0  0
 15 16  1  0  0  0  0
 12 17  2  0  0  0  0
 17 18  1  0  0  0  0
 18 19  1  0  0  0  0
  1 20  1  0  0  0  0
  1 21  1  0  0  0  0
  1 22  1  0  0  0  0
  2 23  1  0  0  0  0
  2 24  1  0  0  0  0
  7 25  1  0  0  0  0
  7 26  1  0  0  0  0
  8 27  1  0  0  0  0
  8 28  1  0  0  0  0
  8 29  1  0  0  0  0
 10 30  1  0  0  0  0
 10 31  1  0  0  0  0
 15 32  1  0  0  0  0
 15 33  1  0  0  0  0
 16 34  1  0  0  0  0
 16 35  1  0  0  0  0
 16 36  1  0  0  0  0
 18 37  1  0  0  0  0
 18 38  1  0  0  0  0
 19 39  1  0  0  0  0
 19 40  1  0  0  0  0
 19 41  1  0  0  0  0
M  END
