 xtb: 6.7.1 (edcfbbe)
          04032519583D

 10  9  0     0  0            999 V2000
    1.5136    0.0296    0.5150 C   0  0  0  0  0  0  0  0  0  0  0  0
    0.7218    0.0929   -0.5497 C   0  0  0  0  0  0  0  0  0  0  0  0
   -0.7218   -0.0926   -0.5497 C   0  0  0  0  0  0  0  0  0  0  0  0
   -1.5136   -0.0299    0.5150 C   0  0  0  0  0  0  0  0  0  0  0  0
    2.5766    0.1771    0.4364 H   0  0  0  0  0  0  0  0  0  0  0  0
    1.1324   -0.1815    1.4993 H   0  0  0  0  0  0  0  0  0  0  0  0
    1.1590    0.2797   -1.5225 H   0  0  0  0  0  0  0  0  0  0  0  0
   -1.1589   -0.2796   -1.5225 H   0  0  0  0  0  0  0  0  0  0  0  0
   -2.5765   -0.1776    0.4363 H   0  0  0  0  0  0  0  0  0  0  0  0
   -1.1324    0.1810    1.4994 H   0  0  0  0  0  0  0  0  0  0  0  0
  1  2  2  0  0  0  0
  2  3  1  0  0  0  0
  3  4  2  0  0  0  0
  1  5  1  0  0  0  0
  1  6  1  0  0  0  0
  2  7  1  0  0  0  0
  3  8  1  0  0  0  0
  4  9  1  0  0  0  0
  4 10  1  0  0  0  0
M  END
