 xtb: 6.7.1 (edcfbbe)
          04092505213D

 41 40  0     0  0            999 V2000
    5.1094   -0.8331   -2.2824 C   0  0  0  0  0  0  0  0  0  0  0  0
    3.5976   -0.9326   -2.2194 C   0  0  0  0  0  0  0  0  0  0  0  0
    3.1981   -0.8910   -0.8388 O   0  0  0  0  0  0  0  0  0  0  0  0
    1.8468   -0.2257   -0.3219 P   0  0  0  0  0  0  0  0  0  0  0  0
    1.3956    1.3944   -1.3383 S   0  0  0  0  0  0  0  0  0  0  0  0
    2.1127   -0.1063    1.2309 O   0  0  0  0  0  0  0  0  0  0  0  0
    2.6707    1.0840    1.8244 C   0  0  0  0  0  0  0  0  0  0  0  0
    4.0829    1.3425    1.3475 C   0  0  0  0  0  0  0  0  0  0  0  0
    0.5856   -1.9314   -0.3403 S   0  0  0  0  0  0  0  0  0  0  0  0
   -0.4205   -1.8267    1.1788 C   0  0  0  0  0  0  0  0  0  0  0  0
   -2.1792   -1.5768    0.8555 S   0  0  0  0  0  0  0  0  0  0  0  0
   -2.0535    0.4945    0.4012 P   0  0  0  0  0  0  0  0  0  0  0  0
   -0.7905    1.5063    1.5013 S   0  0  0  0  0  0  0  0  0  0  0  0
   -3.5704    0.9615    0.3961 O   0  0  0  0  0  0  0  0  0  0  0  0
   -4.5344    0.6849    1.4319 C   0  0  0  0  0  0  0  0  0  0  0  0
   -4.0740    1.1388    2.8007 C   0  0  0  0  0  0  0  0  0  0  0  0
   -1.6840    0.6189   -1.1235 O   0  0  0  0  0  0  0  0  0  0  0  0
   -2.4763    0.0235   -2.1853 C   0  0  0  0  0  0  0  0  0  0  0  0
   -1.5417   -0.6297   -3.1825 C   0  0  0  0  0  0  0  0  0  0  0  0
    5.4274   -0.9183   -3.3163 H   0  0  0  0  0  0  0  0  0  0  0  0
    5.4408    0.1220   -1.8842 H   0  0  0  0  0  0  0  0  0  0  0  0
    5.5571   -1.6328   -1.6997 H   0  0  0  0  0  0  0  0  0  0  0  0
    3.2439   -1.8779   -2.6387 H   0  0  0  0  0  0  0  0  0  0  0  0
    3.1203   -0.0997   -2.7476 H   0  0  0  0  0  0  0  0  0  0  0  0
    2.0126    1.9274    1.5909 H   0  0  0  0  0  0  0  0  0  0  0  0
    2.6296    0.8802    2.8953 H   0  0  0  0  0  0  0  0  0  0  0  0
    4.0731    1.5830    0.2849 H   0  0  0  0  0  0  0  0  0  0  0  0
    4.4976    2.1826    1.8955 H   0  0  0  0  0  0  0  0  0  0  0  0
    4.6992    0.4614    1.5065 H   0  0  0  0  0  0  0  0  0  0  0  0
   -0.0478   -1.0105    1.7985 H   0  0  0  0  0  0  0  0  0  0  0  0
   -0.3322   -2.7862    1.6807 H   0  0  0  0  0  0  0  0  0  0  0  0
   -5.4203    1.2324    1.1056 H   0  0  0  0  0  0  0  0  0  0  0  0
   -4.7366   -0.3896    1.4280 H   0  0  0  0  0  0  0  0  0  0  0  0
   -3.1984    0.5706    3.1110 H   0  0  0  0  0  0  0  0  0  0  0  0
   -3.8085    2.1932    2.7819 H   0  0  0  0  0  0  0  0  0  0  0  0
   -4.8720    0.9811    3.5190 H   0  0  0  0  0  0  0  0  0  0  0  0
   -3.1676   -0.7036   -1.7497 H   0  0  0  0  0  0  0  0  0  0  0  0
   -3.0403    0.8396   -2.6396 H   0  0  0  0  0  0  0  0  0  0  0  0
   -2.1158   -0.9713   -4.0375 H   0  0  0  0  0  0  0  0  0  0  0  0
   -0.7960    0.0902   -3.5112 H   0  0  0  0  0  0  0  0  0  0  0  0
   -1.0312   -1.4772   -2.7302 H   0  0  0  0  0  0  0  0  0  0  0  0
  1  2  1  0  0  0  0
  2  3  1  0  0  0  0
  3  4  2  0  0  0  0
  4  5  2  0  0  0  0
  4  6  2  0  0  0  0
  6  7  1  0  0  0  0
  7  8  1  0  0  0  0
  4  9  1  0  0  0  0
  9 10  1  0  0  0  0
 10 11  1  0  0  0  0
 11 12  1  0  0  0  0
 12 13  2  0  0  0  0
 12 14  2  0  0  0  0
 14 15  1  0  0  0  0
 15 16  1  0  0  0  0
 12 17  2  0  0  0  0
 17 18  1  0  0  0  0
 18 19  1  0  0  0  0
  1 20  1  0  0  0  0
  1 21  1  0  0  0  0
  1 22  1  0  0  0  0
  2 23  1  0  0  0  0
  2 24  1  0  0  0  0
  7 25  1  0  0  0  0
  7 26  1  0  0  0  0
  8 27  1  0  0  0  0
  8 28  1  0  0  0  0
  8 29  1  0  0  0  0
 10 30  1  0  0  0  0
 10 31  1  0  0  0  0
 15 32  1  0  0  0  0
 15 33  1  0  0  0  0
 16 34  1  0  0  0  0
 16 35  1  0  0  0  0
 16 36  1  0  0  0  0
 18 37  1  0  0  0  0
 18 38  1  0  0  0  0
 19 39  1  0  0  0  0
 19 40  1  0  0  0  0
 19 41  1  0  0  0  0
M  END
