 xtb: 6.7.1 (edcfbbe)
          04092505213D

 41 40  0     0  0            999 V2000
    2.8454    0.3571   -3.1122 C   0  0  0  0  0  0  0  0  0  0  0  0
    2.7214    0.9212   -1.7130 C   0  0  0  0  0  0  0  0  0  0  0  0
    2.3920   -0.1682   -0.8285 O   0  0  0  0  0  0  0  0  0  0  0  0
    2.0083    0.1020    0.7017 P   0  0  0  0  0  0  0  0  0  0  0  0
    0.8320    1.6285    1.0306 S   0  0  0  0  0  0  0  0  0  0  0  0
    3.3691    0.3335    1.4822 O   0  0  0  0  0  0  0  0  0  0  0  0
    4.4771   -0.6014    1.4373 C   0  0  0  0  0  0  0  0  0  0  0  0
    4.5141   -1.4439    2.6961 C   0  0  0  0  0  0  0  0  0  0  0  0
    1.4030   -1.8376    1.2195 S   0  0  0  0  0  0  0  0  0  0  0  0
   -0.0872   -1.9906    0.2000 C   0  0  0  0  0  0  0  0  0  0  0  0
   -1.5372   -1.1330    0.8892 S   0  0  0  0  0  0  0  0  0  0  0  0
   -1.9617    0.2547   -0.6785 P   0  0  0  0  0  0  0  0  0  0  0  0
   -0.7400    0.2286   -2.2005 S   0  0  0  0  0  0  0  0  0  0  0  0
   -2.1531    1.6744   -0.0442 O   0  0  0  0  0  0  0  0  0  0  0  0
   -2.9941    1.9213    1.1134 C   0  0  0  0  0  0  0  0  0  0  0  0
   -2.5667    3.2427    1.7144 C   0  0  0  0  0  0  0  0  0  0  0  0
   -3.4714   -0.1095   -1.0492 O   0  0  0  0  0  0  0  0  0  0  0  0
   -3.8040   -1.3431   -1.7155 C   0  0  0  0  0  0  0  0  0  0  0  0
   -5.2510   -1.2574   -2.1565 C   0  0  0  0  0  0  0  0  0  0  0  0
    3.5855   -0.4373   -3.1301 H   0  0  0  0  0  0  0  0  0  0  0  0
    1.8849   -0.0403   -3.4311 H   0  0  0  0  0  0  0  0  0  0  0  0
    3.1455    1.1503   -3.7887 H   0  0  0  0  0  0  0  0  0  0  0  0
    1.9243    1.6700   -1.6549 H   0  0  0  0  0  0  0  0  0  0  0  0
    3.6569    1.3739   -1.3709 H   0  0  0  0  0  0  0  0  0  0  0  0
    4.3848   -1.2240    0.5439 H   0  0  0  0  0  0  0  0  0  0  0  0
    5.3636    0.0307    1.3592 H   0  0  0  0  0  0  0  0  0  0  0  0
    4.5507   -0.8008    3.5710 H   0  0  0  0  0  0  0  0  0  0  0  0
    3.6293   -2.0736    2.7595 H   0  0  0  0  0  0  0  0  0  0  0  0
    5.3985   -2.0727    2.6748 H   0  0  0  0  0  0  0  0  0  0  0  0
   -0.3135   -3.0534    0.1799 H   0  0  0  0  0  0  0  0  0  0  0  0
    0.1100   -1.6014   -0.8027 H   0  0  0  0  0  0  0  0  0  0  0  0
   -4.0305    1.9425    0.7709 H   0  0  0  0  0  0  0  0  0  0  0  0
   -2.8591    1.0998    1.8232 H   0  0  0  0  0  0  0  0  0  0  0  0
   -2.7019    4.0428    0.9926 H   0  0  0  0  0  0  0  0  0  0  0  0
   -3.1628    3.4439    2.5984 H   0  0  0  0  0  0  0  0  0  0  0  0
   -1.5147    3.1970    1.9875 H   0  0  0  0  0  0  0  0  0  0  0  0
   -3.1300   -1.4692   -2.5693 H   0  0  0  0  0  0  0  0  0  0  0  0
   -3.6494   -2.1647   -1.0099 H   0  0  0  0  0  0  0  0  0  0  0  0
   -5.3836   -0.4221   -2.8383 H   0  0  0  0  0  0  0  0  0  0  0  0
   -5.5245   -2.1787   -2.6599 H   0  0  0  0  0  0  0  0  0  0  0  0
   -5.8943   -1.1130   -1.2935 H   0  0  0  0  0  0  0  0  0  0  0  0
  1  2  1  0  0  0  0
  2  3  1  0  0  0  0
  3  4  1  0  0  0  0
  4  5  2  0  0  0  0
  4  6  2  0  0  0  0
  6  7  1  0  0  0  0
  7  8  1  0  0  0  0
  4  9  1  0  0  0  0
  9 10  1  0  0  0  0
 10 11  1  0  0  0  0
 11 12  1  0  0  0  0
 12 13  2  0  0  0  0
 12 14  2  0  0  0  0
 14 15  1  0  0  0  0
 15 16  1  0  0  0  0
 12 17  2  0  0  0  0
 17 18  1  0  0  0  0
 18 19  1  0  0  0  0
  1 20  1  0  0  0  0
  1 21  1  0  0  0  0
  1 22  1  0  0  0  0
  2 23  1  0  0  0  0
  2 24  1  0  0  0  0
  7 25  1  0  0  0  0
  7 26  1  0  0  0  0
  8 27  1  0  0  0  0
  8 28  1  0  0  0  0
  8 29  1  0  0  0  0
 10 30  1  0  0  0  0
 10 31  1  0  0  0  0
 15 32  1  0  0  0  0
 15 33  1  0  0  0  0
 16 34  1  0  0  0  0
 16 35  1  0  0  0  0
 16 36  1  0  0  0  0
 18 37  1  0  0  0  0
 18 38  1  0  0  0  0
 19 39  1  0  0  0  0
 19 40  1  0  0  0  0
 19 41  1  0  0  0  0
M  END
