 xtb: 6.7.1 (edcfbbe)
          04092505213D

 41 40  0     0  0            999 V2000
    5.6717   -0.3805   -0.8182 C   0  0  0  0  0  0  0  0  0  0  0  0
    4.5468   -1.2973   -1.2500 C   0  0  0  0  0  0  0  0  0  0  0  0
    3.4229   -1.2320   -0.3478 O   0  0  0  0  0  0  0  0  0  0  0  0
    2.5107    0.0577   -0.2211 P   0  0  0  0  0  0  0  0  0  0  0  0
    2.1982    1.0164   -1.9093 S   0  0  0  0  0  0  0  0  0  0  0  0
    3.2417    0.8888    0.9176 O   0  0  0  0  0  0  0  0  0  0  0  0
    2.9597    2.2751    1.1725 C   0  0  0  0  0  0  0  0  0  0  0  0
    1.5829    2.4721    1.7731 C   0  0  0  0  0  0  0  0  0  0  0  0
    0.8713   -0.8379    0.7451 S   0  0  0  0  0  0  0  0  0  0  0  0
    0.0197   -1.3912   -0.7781 C   0  0  0  0  0  0  0  0  0  0  0  0
   -1.6860   -1.8418   -0.4460 S   0  0  0  0  0  0  0  0  0  0  0  0
   -2.4960    0.1104   -0.0790 P   0  0  0  0  0  0  0  0  0  0  0  0
   -1.4101    1.6283   -0.6600 S   0  0  0  0  0  0  0  0  0  0  0  0
   -2.8880    0.0946    1.4643 O   0  0  0  0  0  0  0  0  0  0  0  0
   -1.9389    0.2960    2.5275 C   0  0  0  0  0  0  0  0  0  0  0  0
   -2.7222    0.5766    3.7939 C   0  0  0  0  0  0  0  0  0  0  0  0
   -3.9107    0.0973   -0.7580 O   0  0  0  0  0  0  0  0  0  0  0  0
   -4.9219   -0.9167   -0.5000 C   0  0  0  0  0  0  0  0  0  0  0  0
   -5.0575   -1.8347   -1.6977 C   0  0  0  0  0  0  0  0  0  0  0  0
    5.9405   -0.5775    0.2162 H   0  0  0  0  0  0  0  0  0  0  0  0
    6.5349   -0.5445   -1.4557 H   0  0  0  0  0  0  0  0  0  0  0  0
    5.3571    0.6584   -0.9090 H   0  0  0  0  0  0  0  0  0  0  0  0
    4.8435   -2.3465   -1.2195 H   0  0  0  0  0  0  0  0  0  0  0  0
    4.1986   -1.0339   -2.2539 H   0  0  0  0  0  0  0  0  0  0  0  0
    3.7479    2.5791    1.8628 H   0  0  0  0  0  0  0  0  0  0  0  0
    3.0502    2.8286    0.2322 H   0  0  0  0  0  0  0  0  0  0  0  0
    1.4531    1.8227    2.6356 H   0  0  0  0  0  0  0  0  0  0  0  0
    1.4662    3.5073    2.0772 H   0  0  0  0  0  0  0  0  0  0  0  0
    0.8163    2.2403    1.0330 H   0  0  0  0  0  0  0  0  0  0  0  0
    0.5073   -2.2847   -1.1613 H   0  0  0  0  0  0  0  0  0  0  0  0
    0.0526   -0.5730   -1.5022 H   0  0  0  0  0  0  0  0  0  0  0  0
   -1.3266   -0.6057    2.6228 H   0  0  0  0  0  0  0  0  0  0  0  0
   -1.2903    1.1362    2.2606 H   0  0  0  0  0  0  0  0  0  0  0  0
   -3.3285    1.4689    3.6664 H   0  0  0  0  0  0  0  0  0  0  0  0
   -3.3728   -0.2622    4.0227 H   0  0  0  0  0  0  0  0  0  0  0  0
   -2.0283    0.7278    4.6139 H   0  0  0  0  0  0  0  0  0  0  0  0
   -4.6524   -1.4705    0.4003 H   0  0  0  0  0  0  0  0  0  0  0  0
   -5.8386   -0.3513   -0.3263 H   0  0  0  0  0  0  0  0  0  0  0  0
   -5.2576   -1.2514   -2.5922 H   0  0  0  0  0  0  0  0  0  0  0  0
   -4.1439   -2.4053   -1.8451 H   0  0  0  0  0  0  0  0  0  0  0  0
   -5.8811   -2.5203   -1.5255 H   0  0  0  0  0  0  0  0  0  0  0  0
  1  2  1  0  0  0  0
  2  3  1  0  0  0  0
  3  4  2  0  0  0  0
  4  5  2  0  0  0  0
  4  6  2  0  0  0  0
  6  7  1  0  0  0  0
  7  8  1  0  0  0  0
  4  9  1  0  0  0  0
  9 10  1  0  0  0  0
 10 11  1  0  0  0  0
 11 12  1  0  0  0  0
 12 13  2  0  0  0  0
 12 14  2  0  0  0  0
 14 15  1  0  0  0  0
 15 16  1  0  0  0  0
 12 17  2  0  0  0  0
 17 18  1  0  0  0  0
 18 19  1  0  0  0  0
  1 20  1  0  0  0  0
  1 21  1  0  0  0  0
  1 22  1  0  0  0  0
  2 23  1  0  0  0  0
  2 24  1  0  0  0  0
  7 25  1  0  0  0  0
  7 26  1  0  0  0  0
  8 27  1  0  0  0  0
  8 28  1  0  0  0  0
  8 29  1  0  0  0  0
 10 30  1  0  0  0  0
 10 31  1  0  0  0  0
 15 32  1  0  0  0  0
 15 33  1  0  0  0  0
 16 34  1  0  0  0  0
 16 35  1  0  0  0  0
 16 36  1  0  0  0  0
 18 37  1  0  0  0  0
 18 38  1  0  0  0  0
 19 39  1  0  0  0  0
 19 40  1  0  0  0  0
 19 41  1  0  0  0  0
M  END
