 xtb: 6.7.1 (edcfbbe)
          04092505213D

 41 40  0     0  0            999 V2000
    3.8699   -2.4565   -0.6404 C   0  0  0  0  0  0  0  0  0  0  0  0
    4.1379   -1.0695   -1.1864 C   0  0  0  0  0  0  0  0  0  0  0  0
    2.9578   -0.2254   -1.1972 O   0  0  0  0  0  0  0  0  0  0  0  0
    2.1967    0.3078    0.0802 P   0  0  0  0  0  0  0  0  0  0  0  0
    1.4979    2.1232   -0.1936 S   0  0  0  0  0  0  0  0  0  0  0  0
    3.2964    0.2147    1.2256 O   0  0  0  0  0  0  0  0  0  0  0  0
    3.1609    0.9375    2.4607 C   0  0  0  0  0  0  0  0  0  0  0  0
    1.9958    0.4300    3.2852 C   0  0  0  0  0  0  0  0  0  0  0  0
    0.8338   -1.2554    0.5955 S   0  0  0  0  0  0  0  0  0  0  0  0
    0.1448   -1.6058   -1.0365 C   0  0  0  0  0  0  0  0  0  0  0  0
   -0.6609   -0.1936   -1.8710 S   0  0  0  0  0  0  0  0  0  0  0  0
   -2.1616    0.2782   -0.4690 P   0  0  0  0  0  0  0  0  0  0  0  0
   -3.6063    1.4437   -1.0924 S   0  0  0  0  0  0  0  0  0  0  0  0
   -1.2647    0.8592    0.7006 O   0  0  0  0  0  0  0  0  0  0  0  0
   -1.8045    1.6797    1.7542 C   0  0  0  0  0  0  0  0  0  0  0  0
   -2.4435    0.8353    2.8368 C   0  0  0  0  0  0  0  0  0  0  0  0
   -2.6432   -1.1172    0.1370 O   0  0  0  0  0  0  0  0  0  0  0  0
   -3.8071   -1.7988   -0.3613 C   0  0  0  0  0  0  0  0  0  0  0  0
   -3.5542   -2.4504   -1.7064 C   0  0  0  0  0  0  0  0  0  0  0  0
    4.7856   -3.0365   -0.7033 H   0  0  0  0  0  0  0  0  0  0  0  0
    3.5586   -2.4002    0.4000 H   0  0  0  0  0  0  0  0  0  0  0  0
    3.0963   -2.9580   -1.2157 H   0  0  0  0  0  0  0  0  0  0  0  0
    4.4285   -1.0981   -2.2378 H   0  0  0  0  0  0  0  0  0  0  0  0
    4.9094   -0.5660   -0.6018 H   0  0  0  0  0  0  0  0  0  0  0  0
    4.1152    0.7777    2.9643 H   0  0  0  0  0  0  0  0  0  0  0  0
    3.0340    1.9996    2.2271 H   0  0  0  0  0  0  0  0  0  0  0  0
    1.9739    0.9477    4.2387 H   0  0  0  0  0  0  0  0  0  0  0  0
    1.0631    0.6239    2.7558 H   0  0  0  0  0  0  0  0  0  0  0  0
    2.0854   -0.6401    3.4537 H   0  0  0  0  0  0  0  0  0  0  0  0
   -0.5761   -2.4054   -0.8873 H   0  0  0  0  0  0  0  0  0  0  0  0
    0.9332   -1.9065   -1.7229 H   0  0  0  0  0  0  0  0  0  0  0  0
   -0.9417    2.2400    2.1210 H   0  0  0  0  0  0  0  0  0  0  0  0
   -2.5270    2.3767    1.3158 H   0  0  0  0  0  0  0  0  0  0  0  0
   -1.7442    0.0782    3.1823 H   0  0  0  0  0  0  0  0  0  0  0  0
   -2.7257    1.4752    3.6668 H   0  0  0  0  0  0  0  0  0  0  0  0
   -3.3326    0.3431    2.4477 H   0  0  0  0  0  0  0  0  0  0  0  0
   -4.0336   -2.5358    0.4102 H   0  0  0  0  0  0  0  0  0  0  0  0
   -4.6234   -1.0735   -0.4392 H   0  0  0  0  0  0  0  0  0  0  0  0
   -4.4614   -2.9449   -2.0387 H   0  0  0  0  0  0  0  0  0  0  0  0
   -3.2806   -1.6910   -2.4388 H   0  0  0  0  0  0  0  0  0  0  0  0
   -2.7548   -3.1833   -1.6390 H   0  0  0  0  0  0  0  0  0  0  0  0
  1  2  1  0  0  0  0
  2  3  1  0  0  0  0
  3  4  2  0  0  0  0
  4  5  2  0  0  0  0
  4  6  2  0  0  0  0
  6  7  1  0  0  0  0
  7  8  1  0  0  0  0
  4  9  1  0  0  0  0
  9 10  1  0  0  0  0
 10 11  1  0  0  0  0
 11 12  1  0  0  0  0
 12 13  2  0  0  0  0
 12 14  2  0  0  0  0
 14 15  1  0  0  0  0
 15 16  1  0  0  0  0
 12 17  2  0  0  0  0
 17 18  1  0  0  0  0
 18 19  1  0  0  0  0
  1 20  1  0  0  0  0
  1 21  1  0  0  0  0
  1 22  1  0  0  0  0
  2 23  1  0  0  0  0
  2 24  1  0  0  0  0
  7 25  1  0  0  0  0
  7 26  1  0  0  0  0
  8 27  1  0  0  0  0
  8 28  1  0  0  0  0
  8 29  1  0  0  0  0
 10 30  1  0  0  0  0
 10 31  1  0  0  0  0
 15 32  1  0  0  0  0
 15 33  1  0  0  0  0
 16 34  1  0  0  0  0
 16 35  1  0  0  0  0
 16 36  1  0  0  0  0
 18 37  1  0  0  0  0
 18 38  1  0  0  0  0
 19 39  1  0  0  0  0
 19 40  1  0  0  0  0
 19 41  1  0  0  0  0
M  END
