 xtb: 6.7.1 (edcfbbe)
          04092505213D

 41 40  0     0  0            999 V2000
    4.8218   -2.5540   -1.6343 C   0  0  0  0  0  0  0  0  0  0  0  0
    3.9192   -2.0294   -0.5382 C   0  0  0  0  0  0  0  0  0  0  0  0
    3.8900   -0.5792   -0.6413 O   0  0  0  0  0  0  0  0  0  0  0  0
    2.6857    0.2806   -0.1174 P   0  0  0  0  0  0  0  0  0  0  0  0
    2.9407    2.1993   -0.3906 S   0  0  0  0  0  0  0  0  0  0  0  0
    2.6108   -0.1850    1.4049 O   0  0  0  0  0  0  0  0  0  0  0  0
    1.7629    0.4356    2.3911 C   0  0  0  0  0  0  0  0  0  0  0  0
    0.6197   -0.4899    2.7597 C   0  0  0  0  0  0  0  0  0  0  0  0
    0.9834   -0.5776   -1.1047 S   0  0  0  0  0  0  0  0  0  0  0  0
    0.0731    0.9505   -1.4117 C   0  0  0  0  0  0  0  0  0  0  0  0
   -0.8899    1.5086    0.0168 S   0  0  0  0  0  0  0  0  0  0  0  0
   -2.4985    0.1675   -0.2770 P   0  0  0  0  0  0  0  0  0  0  0  0
   -3.1876    0.0284   -2.1008 S   0  0  0  0  0  0  0  0  0  0  0  0
   -3.6217    0.6169    0.7423 O   0  0  0  0  0  0  0  0  0  0  0  0
   -3.4390    0.6403    2.1811 C   0  0  0  0  0  0  0  0  0  0  0  0
   -3.0580    2.0269    2.6584 C   0  0  0  0  0  0  0  0  0  0  0  0
   -1.8402   -1.1686    0.3099 O   0  0  0  0  0  0  0  0  0  0  0  0
   -2.2280   -2.4763   -0.1512 C   0  0  0  0  0  0  0  0  0  0  0  0
   -3.5859   -2.8689    0.3940 C   0  0  0  0  0  0  0  0  0  0  0  0
    4.4207   -2.2898   -2.6087 H   0  0  0  0  0  0  0  0  0  0  0  0
    5.8138   -2.1225   -1.5367 H   0  0  0  0  0  0  0  0  0  0  0  0
    4.8891   -3.6342   -1.5548 H   0  0  0  0  0  0  0  0  0  0  0  0
    4.2992   -2.2789    0.4538 H   0  0  0  0  0  0  0  0  0  0  0  0
    2.8989   -2.4079   -0.6456 H   0  0  0  0  0  0  0  0  0  0  0  0
    2.4122    0.6205    3.2493 H   0  0  0  0  0  0  0  0  0  0  0  0
    1.3982    1.3930    2.0047 H   0  0  0  0  0  0  0  0  0  0  0  0
   -0.0155   -0.6744    1.8968 H   0  0  0  0  0  0  0  0  0  0  0  0
    1.0106   -1.4386    3.1160 H   0  0  0  0  0  0  0  0  0  0  0  0
    0.0304   -0.0249    3.5437 H   0  0  0  0  0  0  0  0  0  0  0  0
   -0.6059    0.7610   -2.2440 H   0  0  0  0  0  0  0  0  0  0  0  0
    0.7797    1.7480   -1.6452 H   0  0  0  0  0  0  0  0  0  0  0  0
   -4.4111    0.3410    2.5767 H   0  0  0  0  0  0  0  0  0  0  0  0
   -2.6812   -0.0970    2.4552 H   0  0  0  0  0  0  0  0  0  0  0  0
   -2.0864    2.3164    2.2629 H   0  0  0  0  0  0  0  0  0  0  0  0
   -3.7970    2.7511    2.3270 H   0  0  0  0  0  0  0  0  0  0  0  0
   -3.0165    2.0297    3.7431 H   0  0  0  0  0  0  0  0  0  0  0  0
   -2.2362   -2.4719   -1.2454 H   0  0  0  0  0  0  0  0  0  0  0  0
   -1.4347   -3.1325    0.2086 H   0  0  0  0  0  0  0  0  0  0  0  0
   -3.5808   -2.8498    1.4806 H   0  0  0  0  0  0  0  0  0  0  0  0
   -4.3415   -2.1731    0.0295 H   0  0  0  0  0  0  0  0  0  0  0  0
   -3.8355   -3.8686    0.0531 H   0  0  0  0  0  0  0  0  0  0  0  0
  1  2  1  0  0  0  0
  2  3  1  0  0  0  0
  3  4  2  0  0  0  0
  4  5  2  0  0  0  0
  4  6  2  0  0  0  0
  6  7  1  0  0  0  0
  7  8  1  0  0  0  0
  4  9  1  0  0  0  0
  9 10  1  0  0  0  0
 10 11  1  0  0  0  0
 11 12  1  0  0  0  0
 12 13  2  0  0  0  0
 12 14  2  0  0  0  0
 14 15  1  0  0  0  0
 15 16  1  0  0  0  0
 12 17  1  0  0  0  0
 17 18  1  0  0  0  0
 18 19  1  0  0  0  0
  1 20  1  0  0  0  0
  1 21  1  0  0  0  0
  1 22  1  0  0  0  0
  2 23  1  0  0  0  0
  2 24  1  0  0  0  0
  7 25  1  0  0  0  0
  7 26  1  0  0  0  0
  8 27  1  0  0  0  0
  8 28  1  0  0  0  0
  8 29  1  0  0  0  0
 10 30  1  0  0  0  0
 10 31  1  0  0  0  0
 15 32  1  0  0  0  0
 15 33  1  0  0  0  0
 16 34  1  0  0  0  0
 16 35  1  0  0  0  0
 16 36  1  0  0  0  0
 18 37  1  0  0  0  0
 18 38  1  0  0  0  0
 19 39  1  0  0  0  0
 19 40  1  0  0  0  0
 19 41  1  0  0  0  0
M  END
