 xtb: 6.7.1 (edcfbbe)
          04092505203D

 41 40  0     0  0            999 V2000
    5.0820   -2.3850   -1.4457 C   0  0  0  0  0  0  0  0  0  0  0  0
    4.0883   -1.2464   -1.5595 C   0  0  0  0  0  0  0  0  0  0  0  0
    3.0779   -1.4365   -0.5492 O   0  0  0  0  0  0  0  0  0  0  0  0
    2.1748   -0.2394   -0.0310 P   0  0  0  0  0  0  0  0  0  0  0  0
    3.1348    1.4130    0.4234 S   0  0  0  0  0  0  0  0  0  0  0  0
    1.3641   -0.9267    1.1382 O   0  0  0  0  0  0  0  0  0  0  0  0
    1.7843   -0.8226    2.5164 C   0  0  0  0  0  0  0  0  0  0  0  0
    3.0686   -1.5840    2.7635 C   0  0  0  0  0  0  0  0  0  0  0  0
    0.6970   -0.0606   -1.5363 S   0  0  0  0  0  0  0  0  0  0  0  0
    0.0406    1.5295   -0.9646 C   0  0  0  0  0  0  0  0  0  0  0  0
   -0.8788    1.3885    0.5817 S   0  0  0  0  0  0  0  0  0  0  0  0
   -2.5678    0.3853   -0.2641 P   0  0  0  0  0  0  0  0  0  0  0  0
   -3.0756    0.9637   -2.0614 S   0  0  0  0  0  0  0  0  0  0  0  0
   -3.6429    0.4685    0.9031 O   0  0  0  0  0  0  0  0  0  0  0  0
   -4.0319    1.6686    1.5991 C   0  0  0  0  0  0  0  0  0  0  0  0
   -4.4693    2.7751    0.6630 C   0  0  0  0  0  0  0  0  0  0  0  0
   -2.2500   -1.1567   -0.2799 O   0  0  0  0  0  0  0  0  0  0  0  0
   -1.9136   -1.9221    0.9047 C   0  0  0  0  0  0  0  0  0  0  0  0
   -1.1054   -3.1256    0.4665 C   0  0  0  0  0  0  0  0  0  0  0  0
    5.5658   -2.3655   -0.4733 H   0  0  0  0  0  0  0  0  0  0  0  0
    4.5703   -3.3353   -1.5663 H   0  0  0  0  0  0  0  0  0  0  0  0
    5.8335   -2.2797   -2.2212 H   0  0  0  0  0  0  0  0  0  0  0  0
    3.5966   -1.2406   -2.5360 H   0  0  0  0  0  0  0  0  0  0  0  0
    4.5690   -0.2758   -1.3956 H   0  0  0  0  0  0  0  0  0  0  0  0
    1.9054    0.2370    2.7626 H   0  0  0  0  0  0  0  0  0  0  0  0
    0.9491   -1.2413    3.0790 H   0  0  0  0  0  0  0  0  0  0  0  0
    3.8815   -1.1233    2.2032 H   0  0  0  0  0  0  0  0  0  0  0  0
    3.3087   -1.5538    3.8217 H   0  0  0  0  0  0  0  0  0  0  0  0
    2.9620   -2.6168    2.4432 H   0  0  0  0  0  0  0  0  0  0  0  0
   -0.6259    1.8936   -1.7475 H   0  0  0  0  0  0  0  0  0  0  0  0
    0.8658    2.2190   -0.7845 H   0  0  0  0  0  0  0  0  0  0  0  0
   -4.8524    1.3380    2.2383 H   0  0  0  0  0  0  0  0  0  0  0  0
   -3.1875    1.9931    2.2135 H   0  0  0  0  0  0  0  0  0  0  0  0
   -3.6313    3.1014    0.0486 H   0  0  0  0  0  0  0  0  0  0  0  0
   -5.2601    2.4247    0.0039 H   0  0  0  0  0  0  0  0  0  0  0  0
   -4.8310    3.6173    1.2440 H   0  0  0  0  0  0  0  0  0  0  0  0
   -1.3435   -1.2827    1.5854 H   0  0  0  0  0  0  0  0  0  0  0  0
   -2.8505   -2.2158    1.3816 H   0  0  0  0  0  0  0  0  0  0  0  0
   -0.1639   -2.8063    0.0258 H   0  0  0  0  0  0  0  0  0  0  0  0
   -0.9027   -3.7530    1.3285 H   0  0  0  0  0  0  0  0  0  0  0  0
   -1.6614   -3.6944   -0.2732 H   0  0  0  0  0  0  0  0  0  0  0  0
  1  2  1  0  0  0  0
  2  3  1  0  0  0  0
  3  4  2  0  0  0  0
  4  5  2  0  0  0  0
  4  6  2  0  0  0  0
  6  7  1  0  0  0  0
  7  8  1  0  0  0  0
  4  9  1  0  0  0  0
  9 10  1  0  0  0  0
 10 11  1  0  0  0  0
 11 12  1  0  0  0  0
 12 13  2  0  0  0  0
 12 14  2  0  0  0  0
 14 15  1  0  0  0  0
 15 16  1  0  0  0  0
 12 17  2  0  0  0  0
 17 18  1  0  0  0  0
 18 19  1  0  0  0  0
  1 20  1  0  0  0  0
  1 21  1  0  0  0  0
  1 22  1  0  0  0  0
  2 23  1  0  0  0  0
  2 24  1  0  0  0  0
  7 25  1  0  0  0  0
  7 26  1  0  0  0  0
  8 27  1  0  0  0  0
  8 28  1  0  0  0  0
  8 29  1  0  0  0  0
 10 30  1  0  0  0  0
 10 31  1  0  0  0  0
 15 32  1  0  0  0  0
 15 33  1  0  0  0  0
 16 34  1  0  0  0  0
 16 35  1  0  0  0  0
 16 36  1  0  0  0  0
 18 37  1  0  0  0  0
 18 38  1  0  0  0  0
 19 39  1  0  0  0  0
 19 40  1  0  0  0  0
 19 41  1  0  0  0  0
M  END
