 xtb: 6.7.1 (edcfbbe)
          04092505213D

 41 40  0     0  0            999 V2000
    5.2750   -2.5388   -1.3334 C   0  0  0  0  0  0  0  0  0  0  0  0
    4.2464   -1.4519   -1.5717 C   0  0  0  0  0  0  0  0  0  0  0  0
    3.2769   -1.5198   -0.5069 O   0  0  0  0  0  0  0  0  0  0  0  0
    2.3149   -0.3033   -0.1618 P   0  0  0  0  0  0  0  0  0  0  0  0
    3.2227    1.4339   -0.0277 S   0  0  0  0  0  0  0  0  0  0  0  0
    1.6037   -0.8438    1.1427 O   0  0  0  0  0  0  0  0  0  0  0  0
    2.1185   -0.5848    2.4724 C   0  0  0  0  0  0  0  0  0  0  0  0
    1.2382    0.4243    3.1818 C   0  0  0  0  0  0  0  0  0  0  0  0
    0.7696   -0.4670   -1.5876 S   0  0  0  0  0  0  0  0  0  0  0  0
    0.1077    1.2087   -1.3619 C   0  0  0  0  0  0  0  0  0  0  0  0
   -0.6828    1.4393    0.2428 S   0  0  0  0  0  0  0  0  0  0  0  0
   -2.5723    0.5225   -0.2013 P   0  0  0  0  0  0  0  0  0  0  0  0
   -2.9673    0.2416   -2.0951 S   0  0  0  0  0  0  0  0  0  0  0  0
   -3.6354    1.4886    0.4362 O   0  0  0  0  0  0  0  0  0  0  0  0
   -3.5852    1.9555    1.8083 C   0  0  0  0  0  0  0  0  0  0  0  0
   -4.4730    1.1112    2.6993 C   0  0  0  0  0  0  0  0  0  0  0  0
   -2.6453   -0.7285    0.7842 O   0  0  0  0  0  0  0  0  0  0  0  0
   -1.7466   -1.8496    0.7948 C   0  0  0  0  0  0  0  0  0  0  0  0
   -1.9367   -2.7584   -0.4028 C   0  0  0  0  0  0  0  0  0  0  0  0
    6.0028   -2.5226   -2.1380 H   0  0  0  0  0  0  0  0  0  0  0  0
    5.7823   -2.3735   -0.3872 H   0  0  0  0  0  0  0  0  0  0  0  0
    4.7877   -3.5091   -1.3073 H   0  0  0  0  0  0  0  0  0  0  0  0
    3.7223   -1.5986   -2.5198 H   0  0  0  0  0  0  0  0  0  0  0  0
    4.7035   -0.4565   -1.5648 H   0  0  0  0  0  0  0  0  0  0  0  0
    2.1089   -1.5535    2.9739 H   0  0  0  0  0  0  0  0  0  0  0  0
    3.1460   -0.2191    2.3954 H   0  0  0  0  0  0  0  0  0  0  0  0
    0.2110    0.0720    3.2119 H   0  0  0  0  0  0  0  0  0  0  0  0
    1.6013    0.5645    4.1947 H   0  0  0  0  0  0  0  0  0  0  0  0
    1.2640    1.3773    2.6573 H   0  0  0  0  0  0  0  0  0  0  0  0
   -0.6233    1.3623   -2.1563 H   0  0  0  0  0  0  0  0  0  0  0  0
    0.9244    1.9280   -1.4164 H   0  0  0  0  0  0  0  0  0  0  0  0
   -2.5460    1.9430    2.1488 H   0  0  0  0  0  0  0  0  0  0  0  0
   -3.9400    2.9863    1.7563 H   0  0  0  0  0  0  0  0  0  0  0  0
   -5.4916    1.1192    2.3213 H   0  0  0  0  0  0  0  0  0  0  0  0
   -4.1189    0.0845    2.7241 H   0  0  0  0  0  0  0  0  0  0  0  0
   -4.4599    1.5216    3.7041 H   0  0  0  0  0  0  0  0  0  0  0  0
   -0.7167   -1.4835    0.8450 H   0  0  0  0  0  0  0  0  0  0  0  0
   -1.9931   -2.3682    1.7236 H   0  0  0  0  0  0  0  0  0  0  0  0
   -1.6562   -2.2462   -1.3213 H   0  0  0  0  0  0  0  0  0  0  0  0
   -1.3089   -3.6362   -0.2869 H   0  0  0  0  0  0  0  0  0  0  0  0
   -2.9766   -3.0650   -0.4808 H   0  0  0  0  0  0  0  0  0  0  0  0
  1  2  1  0  0  0  0
  2  3  1  0  0  0  0
  3  4  2  0  0  0  0
  4  5  2  0  0  0  0
  4  6  2  0  0  0  0
  6  7  1  0  0  0  0
  7  8  1  0  0  0  0
  4  9  1  0  0  0  0
  9 10  1  0  0  0  0
 10 11  1  0  0  0  0
 11 12  1  0  0  0  0
 12 13  2  0  0  0  0
 12 14  2  0  0  0  0
 14 15  1  0  0  0  0
 15 16  1  0  0  0  0
 12 17  2  0  0  0  0
 17 18  1  0  0  0  0
 18 19  1  0  0  0  0
  1 20  1  0  0  0  0
  1 21  1  0  0  0  0
  1 22  1  0  0  0  0
  2 23  1  0  0  0  0
  2 24  1  0  0  0  0
  7 25  1  0  0  0  0
  7 26  1  0  0  0  0
  8 27  1  0  0  0  0
  8 28  1  0  0  0  0
  8 29  1  0  0  0  0
 10 30  1  0  0  0  0
 10 31  1  0  0  0  0
 15 32  1  0  0  0  0
 15 33  1  0  0  0  0
 16 34  1  0  0  0  0
 16 35  1  0  0  0  0
 16 36  1  0  0  0  0
 18 37  1  0  0  0  0
 18 38  1  0  0  0  0
 19 39  1  0  0  0  0
 19 40  1  0  0  0  0
 19 41  1  0  0  0  0
M  END
