 xtb: 6.7.1 (edcfbbe)
          04092505203D

 41 40  0     0  0            999 V2000
    5.5498   -0.4461   -0.6995 C   0  0  0  0  0  0  0  0  0  0  0  0
    4.3366   -1.3281   -0.9099 C   0  0  0  0  0  0  0  0  0  0  0  0
    3.2545   -0.5845   -1.5246 O   0  0  0  0  0  0  0  0  0  0  0  0
    2.0968    0.1137   -0.7158 P   0  0  0  0  0  0  0  0  0  0  0  0
    0.8780    1.0062   -1.9569 S   0  0  0  0  0  0  0  0  0  0  0  0
    2.8860    1.0269    0.3097 O   0  0  0  0  0  0  0  0  0  0  0  0
    2.2497    1.9645    1.1996 C   0  0  0  0  0  0  0  0  0  0  0  0
    3.3254    2.8806    1.7448 C   0  0  0  0  0  0  0  0  0  0  0  0
    1.2718   -1.4248    0.5087 S   0  0  0  0  0  0  0  0  0  0  0  0
   -0.0140   -2.0110   -0.6426 C   0  0  0  0  0  0  0  0  0  0  0  0
   -1.6347   -2.1907    0.1440 S   0  0  0  0  0  0  0  0  0  0  0  0
   -2.2279   -0.1714    0.2657 P   0  0  0  0  0  0  0  0  0  0  0  0
   -1.0925    1.1412    1.1880 S   0  0  0  0  0  0  0  0  0  0  0  0
   -3.6923   -0.2820    0.8705 O   0  0  0  0  0  0  0  0  0  0  0  0
   -3.9488   -0.2221    2.2841 C   0  0  0  0  0  0  0  0  0  0  0  0
   -3.3986   -1.4319    3.0113 C   0  0  0  0  0  0  0  0  0  0  0  0
   -2.5063    0.0859   -1.2708 O   0  0  0  0  0  0  0  0  0  0  0  0
   -2.6673    1.4029   -1.8329 C   0  0  0  0  0  0  0  0  0  0  0  0
   -3.8845    2.1122   -1.2801 C   0  0  0  0  0  0  0  0  0  0  0  0
    5.8536   -0.0003   -1.6427 H   0  0  0  0  0  0  0  0  0  0  0  0
    5.3220    0.3483    0.0058 H   0  0  0  0  0  0  0  0  0  0  0  0
    6.3631   -1.0501   -0.3095 H   0  0  0  0  0  0  0  0  0  0  0  0
    3.9821   -1.7502    0.0350 H   0  0  0  0  0  0  0  0  0  0  0  0
    4.5465   -2.1304   -1.6194 H   0  0  0  0  0  0  0  0  0  0  0  0
    1.4883    2.5199    0.6433 H   0  0  0  0  0  0  0  0  0  0  0  0
    1.7522    1.4061    1.9969 H   0  0  0  0  0  0  0  0  0  0  0  0
    4.0681    2.3015    2.2857 H   0  0  0  0  0  0  0  0  0  0  0  0
    3.8110    3.4117    0.9308 H   0  0  0  0  0  0  0  0  0  0  0  0
    2.8682    3.5973    2.4187 H   0  0  0  0  0  0  0  0  0  0  0  0
    0.2584   -3.0051   -0.9867 H   0  0  0  0  0  0  0  0  0  0  0  0
   -0.0850   -1.3032   -1.4726 H   0  0  0  0  0  0  0  0  0  0  0  0
   -3.5037    0.6976    2.6779 H   0  0  0  0  0  0  0  0  0  0  0  0
   -5.0361   -0.1688    2.3510 H   0  0  0  0  0  0  0  0  0  0  0  0
   -3.7611   -2.3471    2.5498 H   0  0  0  0  0  0  0  0  0  0  0  0
   -2.3097   -1.4271    2.9684 H   0  0  0  0  0  0  0  0  0  0  0  0
   -3.7104   -1.4010    4.0503 H   0  0  0  0  0  0  0  0  0  0  0  0
   -1.7542    1.9755   -1.6405 H   0  0  0  0  0  0  0  0  0  0  0  0
   -2.7530    1.2159   -2.9041 H   0  0  0  0  0  0  0  0  0  0  0  0
   -4.7677    1.4903   -1.4013 H   0  0  0  0  0  0  0  0  0  0  0  0
   -3.7420    2.3222   -0.2206 H   0  0  0  0  0  0  0  0  0  0  0  0
   -4.0230    3.0495   -1.8098 H   0  0  0  0  0  0  0  0  0  0  0  0
  1  2  1  0  0  0  0
  2  3  1  0  0  0  0
  3  4  2  0  0  0  0
  4  5  2  0  0  0  0
  4  6  2  0  0  0  0
  6  7  1  0  0  0  0
  7  8  1  0  0  0  0
  4  9  1  0  0  0  0
  9 10  1  0  0  0  0
 10 11  1  0  0  0  0
 11 12  1  0  0  0  0
 12 13  2  0  0  0  0
 12 14  2  0  0  0  0
 14 15  1  0  0  0  0
 15 16  1  0  0  0  0
 12 17  2  0  0  0  0
 17 18  1  0  0  0  0
 18 19  1  0  0  0  0
  1 20  1  0  0  0  0
  1 21  1  0  0  0  0
  1 22  1  0  0  0  0
  2 23  1  0  0  0  0
  2 24  1  0  0  0  0
  7 25  1  0  0  0  0
  7 26  1  0  0  0  0
  8 27  1  0  0  0  0
  8 28  1  0  0  0  0
  8 29  1  0  0  0  0
 10 30  1  0  0  0  0
 10 31  1  0  0  0  0
 15 32  1  0  0  0  0
 15 33  1  0  0  0  0
 16 34  1  0  0  0  0
 16 35  1  0  0  0  0
 16 36  1  0  0  0  0
 18 37  1  0  0  0  0
 18 38  1  0  0  0  0
 19 39  1  0  0  0  0
 19 40  1  0  0  0  0
 19 41  1  0  0  0  0
M  END
