 xtb: 6.7.1 (edcfbbe)
          04032520393D

 22 22  0     0  0            999 V2000
    2.6587    0.0001    0.3929 C   0  0  0  0  0  0  0  0  0  0  0  0
    1.3481    0.0000   -0.2201 N   0  0  0  0  0  0  0  0  0  0  0  0
    0.5904    1.1907    0.1277 C   0  0  0  0  0  0  0  0  0  0  0  0
   -0.7526    1.1826   -0.6119 C   0  0  0  0  0  0  0  0  0  0  0  0
   -1.5529    0.0000   -0.3497 N   0  0  0  0  0  0  0  0  0  0  0  0
   -0.7527   -1.1827   -0.6117 C   0  0  0  0  0  0  0  0  0  0  0  0
    0.5905   -1.1908    0.1275 C   0  0  0  0  0  0  0  0  0  0  0  0
   -2.2005    0.0001    0.9469 C   0  0  0  0  0  0  0  0  0  0  0  0
    3.2016   -0.8858    0.0683 H   0  0  0  0  0  0  0  0  0  0  0  0
    2.6124    0.0005    1.4948 H   0  0  0  0  0  0  0  0  0  0  0  0
    3.2018    0.8855    0.0677 H   0  0  0  0  0  0  0  0  0  0  0  0
    0.4225    1.2558    1.2200 H   0  0  0  0  0  0  0  0  0  0  0  0
    1.1660    2.0674   -0.1768 H   0  0  0  0  0  0  0  0  0  0  0  0
   -1.3302    2.0685   -0.3431 H   0  0  0  0  0  0  0  0  0  0  0  0
   -0.5534    1.2037   -1.6866 H   0  0  0  0  0  0  0  0  0  0  0  0
   -1.3302   -2.0684   -0.3424 H   0  0  0  0  0  0  0  0  0  0  0  0
   -0.5539   -1.2043   -1.6865 H   0  0  0  0  0  0  0  0  0  0  0  0
    0.4230   -1.2563    1.2198 H   0  0  0  0  0  0  0  0  0  0  0  0
    1.1662   -2.0673   -0.1775 H   0  0  0  0  0  0  0  0  0  0  0  0
   -2.8324   -0.8840    1.0167 H   0  0  0  0  0  0  0  0  0  0  0  0
   -2.8322    0.8844    1.0167 H   0  0  0  0  0  0  0  0  0  0  0  0
   -1.5104    0.0000    1.8023 H   0  0  0  0  0  0  0  0  0  0  0  0
  1  2  1  0  0  0  0
  2  3  1  0  0  0  0
  3  4  1  0  0  0  0
  4  5  1  0  0  0  0
  5  6  1  0  0  0  0
  2  7  1  0  0  0  0
  6  7  1  0  0  0  0
  5  8  1  0  0  0  0
  1  9  1  0  0  0  0
  1 10  1  0  0  0  0
  1 11  1  0  0  0  0
  3 12  1  0  0  0  0
  3 13  1  0  0  0  0
  4 14  1  0  0  0  0
  4 15  1  0  0  0  0
  6 16  1  0  0  0  0
  6 17  1  0  0  0  0
  7 18  1  0  0  0  0
  7 19  1  0  0  0  0
  8 20  1  0  0  0  0
  8 21  1  0  0  0  0
  8 22  1  0  0  0  0
M  END
