 xtb: 6.7.1 (edcfbbe)
          04092505213D

 41 40  0     0  0            999 V2000
    3.4304    1.1689    2.8656 C   0  0  0  0  0  0  0  0  0  0  0  0
    2.2359    1.4620    1.9822 C   0  0  0  0  0  0  0  0  0  0  0  0
    2.4321    0.9313    0.6584 O   0  0  0  0  0  0  0  0  0  0  0  0
    2.3005   -0.6101    0.3243 P   0  0  0  0  0  0  0  0  0  0  0  0
    1.1052   -1.5951    1.5331 S   0  0  0  0  0  0  0  0  0  0  0  0
    3.8281   -1.0397    0.2958 O   0  0  0  0  0  0  0  0  0  0  0  0
    4.3733   -2.1698   -0.4091 C   0  0  0  0  0  0  0  0  0  0  0  0
    3.6647   -3.4674   -0.0786 C   0  0  0  0  0  0  0  0  0  0  0  0
    1.7467   -0.5664   -1.7193 S   0  0  0  0  0  0  0  0  0  0  0  0
   -0.0278   -0.5178   -1.4332 C   0  0  0  0  0  0  0  0  0  0  0  0
   -0.5307    1.0679   -0.6802 S   0  0  0  0  0  0  0  0  0  0  0  0
   -2.5875    0.5278   -0.5414 P   0  0  0  0  0  0  0  0  0  0  0  0
   -3.3148   -0.4184   -2.0870 S   0  0  0  0  0  0  0  0  0  0  0  0
   -3.3159    1.8763   -0.1207 O   0  0  0  0  0  0  0  0  0  0  0  0
   -3.8174    2.8189   -1.0883 C   0  0  0  0  0  0  0  0  0  0  0  0
   -2.7061    3.4659   -1.8884 C   0  0  0  0  0  0  0  0  0  0  0  0
   -2.6902   -0.3334    0.7755 O   0  0  0  0  0  0  0  0  0  0  0  0
   -2.3763    0.2025    2.0865 C   0  0  0  0  0  0  0  0  0  0  0  0
   -2.2644   -0.9608    3.0480 C   0  0  0  0  0  0  0  0  0  0  0  0
    4.3365    1.5623    2.4134 H   0  0  0  0  0  0  0  0  0  0  0  0
    3.2824    1.6231    3.8402 H   0  0  0  0  0  0  0  0  0  0  0  0
    3.5386    0.0913    2.9856 H   0  0  0  0  0  0  0  0  0  0  0  0
    2.0933    2.5311    1.8221 H   0  0  0  0  0  0  0  0  0  0  0  0
    1.3260    1.0235    2.4059 H   0  0  0  0  0  0  0  0  0  0  0  0
    4.3186   -1.9603   -1.4810 H   0  0  0  0  0  0  0  0  0  0  0  0
    5.4163   -2.1921   -0.0883 H   0  0  0  0  0  0  0  0  0  0  0  0
    3.6563   -3.6335    0.9963 H   0  0  0  0  0  0  0  0  0  0  0  0
    2.6345   -3.4344   -0.4319 H   0  0  0  0  0  0  0  0  0  0  0  0
    4.1763   -4.2918   -0.5647 H   0  0  0  0  0  0  0  0  0  0  0  0
   -0.3077   -1.3289   -0.7566 H   0  0  0  0  0  0  0  0  0  0  0  0
   -0.5197   -0.6275   -2.3987 H   0  0  0  0  0  0  0  0  0  0  0  0
   -4.5133    2.2947   -1.7500 H   0  0  0  0  0  0  0  0  0  0  0  0
   -4.3564    3.5480   -0.4817 H   0  0  0  0  0  0  0  0  0  0  0  0
   -1.9562    3.8885   -1.2242 H   0  0  0  0  0  0  0  0  0  0  0  0
   -2.2303    2.7260   -2.5305 H   0  0  0  0  0  0  0  0  0  0  0  0
   -3.1231    4.2522   -2.5093 H   0  0  0  0  0  0  0  0  0  0  0  0
   -1.4360    0.7580    2.0175 H   0  0  0  0  0  0  0  0  0  0  0  0
   -3.1789    0.8863    2.3683 H   0  0  0  0  0  0  0  0  0  0  0  0
   -1.4295   -1.6001    2.7697 H   0  0  0  0  0  0  0  0  0  0  0  0
   -2.1001   -0.5792    4.0504 H   0  0  0  0  0  0  0  0  0  0  0  0
   -3.1780   -1.5475    3.0281 H   0  0  0  0  0  0  0  0  0  0  0  0
  1  2  1  0  0  0  0
  2  3  1  0  0  0  0
  3  4  2  0  0  0  0
  4  5  2  0  0  0  0
  4  6  2  0  0  0  0
  6  7  1  0  0  0  0
  7  8  1  0  0  0  0
  4  9  1  0  0  0  0
  9 10  1  0  0  0  0
 10 11  1  0  0  0  0
 11 12  1  0  0  0  0
 12 13  2  0  0  0  0
 12 14  2  0  0  0  0
 14 15  1  0  0  0  0
 15 16  1  0  0  0  0
 12 17  2  0  0  0  0
 17 18  1  0  0  0  0
 18 19  1  0  0  0  0
  1 20  1  0  0  0  0
  1 21  1  0  0  0  0
  1 22  1  0  0  0  0
  2 23  1  0  0  0  0
  2 24  1  0  0  0  0
  7 25  1  0  0  0  0
  7 26  1  0  0  0  0
  8 27  1  0  0  0  0
  8 28  1  0  0  0  0
  8 29  1  0  0  0  0
 10 30  1  0  0  0  0
 10 31  1  0  0  0  0
 15 32  1  0  0  0  0
 15 33  1  0  0  0  0
 16 34  1  0  0  0  0
 16 35  1  0  0  0  0
 16 36  1  0  0  0  0
 18 37  1  0  0  0  0
 18 38  1  0  0  0  0
 19 39  1  0  0  0  0
 19 40  1  0  0  0  0
 19 41  1  0  0  0  0
M  END
