 xtb: 6.7.1 (edcfbbe)
          04092505203D

 41 40  0     0  0            999 V2000
    4.0474    1.4977   -1.5352 C   0  0  0  0  0  0  0  0  0  0  0  0
    2.7515    0.7901   -1.8730 C   0  0  0  0  0  0  0  0  0  0  0  0
    2.4754   -0.2808   -0.9548 O   0  0  0  0  0  0  0  0  0  0  0  0
    2.0668   -0.0097    0.5705 P   0  0  0  0  0  0  0  0  0  0  0  0
    1.0233    1.6057    0.9022 S   0  0  0  0  0  0  0  0  0  0  0  0
    3.4025    0.0448    1.4213 O   0  0  0  0  0  0  0  0  0  0  0  0
    4.4243   -0.9807    1.3703 C   0  0  0  0  0  0  0  0  0  0  0  0
    4.3482   -1.8675    2.5967 C   0  0  0  0  0  0  0  0  0  0  0  0
    1.2720   -1.9106    1.0086 S   0  0  0  0  0  0  0  0  0  0  0  0
   -0.2125   -1.8870   -0.0247 C   0  0  0  0  0  0  0  0  0  0  0  0
   -1.5842   -0.9638    0.7366 S   0  0  0  0  0  0  0  0  0  0  0  0
   -2.1905    0.1941   -0.9475 P   0  0  0  0  0  0  0  0  0  0  0  0
   -0.7574    0.5755   -2.2281 S   0  0  0  0  0  0  0  0  0  0  0  0
   -2.9921    1.4310   -0.3678 O   0  0  0  0  0  0  0  0  0  0  0  0
   -2.4076    2.5455    0.3320 C   0  0  0  0  0  0  0  0  0  0  0  0
   -2.5358    2.3669    1.8312 C   0  0  0  0  0  0  0  0  0  0  0  0
   -3.3351   -0.6118   -1.6746 O   0  0  0  0  0  0  0  0  0  0  0  0
   -4.7208   -0.6882   -1.2577 C   0  0  0  0  0  0  0  0  0  0  0  0
   -4.8896   -1.3331    0.1015 C   0  0  0  0  0  0  0  0  0  0  0  0
    4.8735    0.7911   -1.5246 H   0  0  0  0  0  0  0  0  0  0  0  0
    4.2389    2.2649   -2.2787 H   0  0  0  0  0  0  0  0  0  0  0  0
    3.9658    1.9678   -0.5552 H   0  0  0  0  0  0  0  0  0  0  0  0
    2.7914    0.2992   -2.8465 H   0  0  0  0  0  0  0  0  0  0  0  0
    1.9082    1.4879   -1.8599 H   0  0  0  0  0  0  0  0  0  0  0  0
    4.3055   -1.5601    0.4513 H   0  0  0  0  0  0  0  0  0  0  0  0
    5.3655   -0.4284    1.3414 H   0  0  0  0  0  0  0  0  0  0  0  0
    3.4095   -2.4172    2.6115 H   0  0  0  0  0  0  0  0  0  0  0  0
    5.1738   -2.5718    2.5764 H   0  0  0  0  0  0  0  0  0  0  0  0
    4.4141   -1.2615    3.4960 H   0  0  0  0  0  0  0  0  0  0  0  0
   -0.5117   -2.9260   -0.1328 H   0  0  0  0  0  0  0  0  0  0  0  0
    0.0184   -1.4317   -0.9915 H   0  0  0  0  0  0  0  0  0  0  0  0
   -1.3596    2.6551    0.0391 H   0  0  0  0  0  0  0  0  0  0  0  0
   -2.9739    3.4123   -0.0138 H   0  0  0  0  0  0  0  0  0  0  0  0
   -3.5748    2.2050    2.1037 H   0  0  0  0  0  0  0  0  0  0  0  0
   -1.9404    1.5200    2.1648 H   0  0  0  0  0  0  0  0  0  0  0  0
   -2.1666    3.2612    2.3222 H   0  0  0  0  0  0  0  0  0  0  0  0
   -5.1337    0.3219   -1.2657 H   0  0  0  0  0  0  0  0  0  0  0  0
   -5.1817   -1.2849   -2.0465 H   0  0  0  0  0  0  0  0  0  0  0  0
   -4.4294   -0.7191    0.8733 H   0  0  0  0  0  0  0  0  0  0  0  0
   -5.9496   -1.4323    0.3141 H   0  0  0  0  0  0  0  0  0  0  0  0
   -4.4281   -2.3170    0.1176 H   0  0  0  0  0  0  0  0  0  0  0  0
  1  2  1  0  0  0  0
  2  3  1  0  0  0  0
  3  4  1  0  0  0  0
  4  5  2  0  0  0  0
  4  6  2  0  0  0  0
  6  7  1  0  0  0  0
  7  8  1  0  0  0  0
  4  9  1  0  0  0  0
  9 10  1  0  0  0  0
 10 11  1  0  0  0  0
 11 12  1  0  0  0  0
 12 13  2  0  0  0  0
 12 14  2  0  0  0  0
 14 15  1  0  0  0  0
 15 16  1  0  0  0  0
 12 17  2  0  0  0  0
 17 18  1  0  0  0  0
 18 19  1  0  0  0  0
  1 20  1  0  0  0  0
  1 21  1  0  0  0  0
  1 22  1  0  0  0  0
  2 23  1  0  0  0  0
  2 24  1  0  0  0  0
  7 25  1  0  0  0  0
  7 26  1  0  0  0  0
  8 27  1  0  0  0  0
  8 28  1  0  0  0  0
  8 29  1  0  0  0  0
 10 30  1  0  0  0  0
 10 31  1  0  0  0  0
 15 32  1  0  0  0  0
 15 33  1  0  0  0  0
 16 34  1  0  0  0  0
 16 35  1  0  0  0  0
 16 36  1  0  0  0  0
 18 37  1  0  0  0  0
 18 38  1  0  0  0  0
 19 39  1  0  0  0  0
 19 40  1  0  0  0  0
 19 41  1  0  0  0  0
M  END
