 xtb: 6.7.1 (edcfbbe)
          04092505213D

 41 40  0     0  0            999 V2000
    3.7806   -1.2960   -1.9143 C   0  0  0  0  0  0  0  0  0  0  0  0
    2.7412   -0.2367   -2.2147 C   0  0  0  0  0  0  0  0  0  0  0  0
    2.4743    0.6244   -1.0832 O   0  0  0  0  0  0  0  0  0  0  0  0
    1.9753    0.1608    0.3482 P   0  0  0  0  0  0  0  0  0  0  0  0
    1.1231    1.6429    1.3036 S   0  0  0  0  0  0  0  0  0  0  0  0
    3.2716   -0.3789    1.1226 O   0  0  0  0  0  0  0  0  0  0  0  0
    4.3022    0.5386    1.5345 C   0  0  0  0  0  0  0  0  0  0  0  0
    5.3767   -0.2622    2.2406 C   0  0  0  0  0  0  0  0  0  0  0  0
    0.9829   -1.6825    0.1990 S   0  0  0  0  0  0  0  0  0  0  0  0
   -0.4023   -1.3689    1.3437 C   0  0  0  0  0  0  0  0  0  0  0  0
   -2.0266   -1.4974    0.5619 S   0  0  0  0  0  0  0  0  0  0  0  0
   -2.0559    0.3645   -0.4713 P   0  0  0  0  0  0  0  0  0  0  0  0
   -0.6601    0.6216   -1.8252 S   0  0  0  0  0  0  0  0  0  0  0  0
   -2.0172    1.4892    0.6316 O   0  0  0  0  0  0  0  0  0  0  0  0
   -3.1422    1.9697    1.4082 C   0  0  0  0  0  0  0  0  0  0  0  0
   -3.7331    0.9069    2.3102 C   0  0  0  0  0  0  0  0  0  0  0  0
   -3.5379    0.4625   -1.0279 O   0  0  0  0  0  0  0  0  0  0  0  0
   -3.9275   -0.0942   -2.2976 C   0  0  0  0  0  0  0  0  0  0  0  0
   -3.8196   -1.6045   -2.3185 C   0  0  0  0  0  0  0  0  0  0  0  0
    3.9666   -1.8693   -2.8170 H   0  0  0  0  0  0  0  0  0  0  0  0
    4.7088   -0.8346   -1.5855 H   0  0  0  0  0  0  0  0  0  0  0  0
    3.4222   -1.9688   -1.1364 H   0  0  0  0  0  0  0  0  0  0  0  0
    1.7933   -0.6827   -2.5278 H   0  0  0  0  0  0  0  0  0  0  0  0
    3.0802    0.4621   -2.9813 H   0  0  0  0  0  0  0  0  0  0  0  0
    4.6933    1.0501    0.6488 H   0  0  0  0  0  0  0  0  0  0  0  0
    3.8529    1.2864    2.1967 H   0  0  0  0  0  0  0  0  0  0  0  0
    6.1632    0.4090    2.5696 H   0  0  0  0  0  0  0  0  0  0  0  0
    4.9515   -0.7700    3.1011 H   0  0  0  0  0  0  0  0  0  0  0  0
    5.7925   -1.0044    1.5654 H   0  0  0  0  0  0  0  0  0  0  0  0
   -0.2744   -0.3696    1.7706 H   0  0  0  0  0  0  0  0  0  0  0  0
   -0.3783   -2.1382    2.1105 H   0  0  0  0  0  0  0  0  0  0  0  0
   -2.7059    2.7891    1.9823 H   0  0  0  0  0  0  0  0  0  0  0  0
   -3.8913    2.3560    0.7147 H   0  0  0  0  0  0  0  0  0  0  0  0
   -2.9657    0.4854    2.9547 H   0  0  0  0  0  0  0  0  0  0  0  0
   -4.5020    1.3625    2.9266 H   0  0  0  0  0  0  0  0  0  0  0  0
   -4.1779    0.1099    1.7186 H   0  0  0  0  0  0  0  0  0  0  0  0
   -4.9586    0.2406   -2.4189 H   0  0  0  0  0  0  0  0  0  0  0  0
   -3.2964    0.3476   -3.0748 H   0  0  0  0  0  0  0  0  0  0  0  0
   -4.2396   -1.9800   -3.2461 H   0  0  0  0  0  0  0  0  0  0  0  0
   -2.7738   -1.9024   -2.2592 H   0  0  0  0  0  0  0  0  0  0  0  0
   -4.3552   -2.0363   -1.4770 H   0  0  0  0  0  0  0  0  0  0  0  0
  1  2  1  0  0  0  0
  2  3  1  0  0  0  0
  3  4  2  0  0  0  0
  4  5  2  0  0  0  0
  4  6  1  0  0  0  0
  6  7  1  0  0  0  0
  7  8  1  0  0  0  0
  4  9  1  0  0  0  0
  9 10  1  0  0  0  0
 10 11  1  0  0  0  0
 11 12  1  0  0  0  0
 12 13  2  0  0  0  0
 12 14  2  0  0  0  0
 14 15  1  0  0  0  0
 15 16  1  0  0  0  0
 12 17  2  0  0  0  0
 17 18  1  0  0  0  0
 18 19  1  0  0  0  0
  1 20  1  0  0  0  0
  1 21  1  0  0  0  0
  1 22  1  0  0  0  0
  2 23  1  0  0  0  0
  2 24  1  0  0  0  0
  7 25  1  0  0  0  0
  7 26  1  0  0  0  0
  8 27  1  0  0  0  0
  8 28  1  0  0  0  0
  8 29  1  0  0  0  0
 10 30  1  0  0  0  0
 10 31  1  0  0  0  0
 15 32  1  0  0  0  0
 15 33  1  0  0  0  0
 16 34  1  0  0  0  0
 16 35  1  0  0  0  0
 16 36  1  0  0  0  0
 18 37  1  0  0  0  0
 18 38  1  0  0  0  0
 19 39  1  0  0  0  0
 19 40  1  0  0  0  0
 19 41  1  0  0  0  0
M  END
