 xtb: 6.7.1 (edcfbbe)
          04092505213D

 41 40  0     0  0            999 V2000
    1.4223   -0.9093    2.9038 C   0  0  0  0  0  0  0  0  0  0  0  0
    2.0972    0.3637    2.4369 C   0  0  0  0  0  0  0  0  0  0  0  0
    3.0511    0.1398    1.3836 O   0  0  0  0  0  0  0  0  0  0  0  0
    2.7356   -0.5752   -0.0025 P   0  0  0  0  0  0  0  0  0  0  0  0
    2.5985   -2.5248   -0.0338 S   0  0  0  0  0  0  0  0  0  0  0  0
    3.9589   -0.1242   -0.8852 O   0  0  0  0  0  0  0  0  0  0  0  0
    4.3418    1.2586   -1.0857 C   0  0  0  0  0  0  0  0  0  0  0  0
    5.4707    1.6435   -0.1514 C   0  0  0  0  0  0  0  0  0  0  0  0
    1.0504    0.5211   -0.7703 S   0  0  0  0  0  0  0  0  0  0  0  0
   -0.0425   -0.8686   -1.1518 C   0  0  0  0  0  0  0  0  0  0  0  0
   -1.3060   -1.1374    0.1119 S   0  0  0  0  0  0  0  0  0  0  0  0
   -2.5437    0.5073   -0.4609 P   0  0  0  0  0  0  0  0  0  0  0  0
   -2.6794    0.8479   -2.3815 S   0  0  0  0  0  0  0  0  0  0  0  0
   -1.9528    1.7527    0.3027 O   0  0  0  0  0  0  0  0  0  0  0  0
   -1.6858    1.8046    1.7255 C   0  0  0  0  0  0  0  0  0  0  0  0
   -2.8928    2.2941    2.4990 C   0  0  0  0  0  0  0  0  0  0  0  0
   -3.9160    0.2345    0.2932 O   0  0  0  0  0  0  0  0  0  0  0  0
   -4.9742   -0.5502   -0.2856 C   0  0  0  0  0  0  0  0  0  0  0  0
   -4.5913   -2.0070   -0.4461 C   0  0  0  0  0  0  0  0  0  0  0  0
    0.7972   -1.3253    2.1139 H   0  0  0  0  0  0  0  0  0  0  0  0
    2.1670   -1.6541    3.1740 H   0  0  0  0  0  0  0  0  0  0  0  0
    0.8021   -0.6928    3.7678 H   0  0  0  0  0  0  0  0  0  0  0  0
    2.6944    0.8110    3.2334 H   0  0  0  0  0  0  0  0  0  0  0  0
    1.3584    1.0861    2.0777 H   0  0  0  0  0  0  0  0  0  0  0  0
    4.6567    1.3063   -2.1298 H   0  0  0  0  0  0  0  0  0  0  0  0
    3.4647    1.8954   -0.9388 H   0  0  0  0  0  0  0  0  0  0  0  0
    5.7766    2.6628   -0.3651 H   0  0  0  0  0  0  0  0  0  0  0  0
    5.1463    1.5734    0.8831 H   0  0  0  0  0  0  0  0  0  0  0  0
    6.3157    0.9765   -0.2981 H   0  0  0  0  0  0  0  0  0  0  0  0
    0.5511   -1.7836   -1.2088 H   0  0  0  0  0  0  0  0  0  0  0  0
   -0.5352   -0.6455   -2.0987 H   0  0  0  0  0  0  0  0  0  0  0  0
   -1.3792    0.8104    2.0634 H   0  0  0  0  0  0  0  0  0  0  0  0
   -0.8520    2.5045    1.8086 H   0  0  0  0  0  0  0  0  0  0  0  0
   -3.7084    1.5809    2.4202 H   0  0  0  0  0  0  0  0  0  0  0  0
   -2.6189    2.4114    3.5428 H   0  0  0  0  0  0  0  0  0  0  0  0
   -3.2243    3.2511    2.1055 H   0  0  0  0  0  0  0  0  0  0  0  0
   -5.8018   -0.4270    0.4144 H   0  0  0  0  0  0  0  0  0  0  0  0
   -5.2374   -0.1126   -1.2535 H   0  0  0  0  0  0  0  0  0  0  0  0
   -5.4636   -2.5743   -0.7546 H   0  0  0  0  0  0  0  0  0  0  0  0
   -3.8199   -2.1095   -1.2080 H   0  0  0  0  0  0  0  0  0  0  0  0
   -4.2136   -2.4065    0.4919 H   0  0  0  0  0  0  0  0  0  0  0  0
  1  2  1  0  0  0  0
  2  3  1  0  0  0  0
  3  4  2  0  0  0  0
  4  5  2  0  0  0  0
  4  6  2  0  0  0  0
  6  7  1  0  0  0  0
  7  8  1  0  0  0  0
  4  9  1  0  0  0  0
  9 10  1  0  0  0  0
 10 11  1  0  0  0  0
 11 12  1  0  0  0  0
 12 13  2  0  0  0  0
 12 14  2  0  0  0  0
 14 15  1  0  0  0  0
 15 16  1  0  0  0  0
 12 17  2  0  0  0  0
 17 18  1  0  0  0  0
 18 19  1  0  0  0  0
  1 20  1  0  0  0  0
  1 21  1  0  0  0  0
  1 22  1  0  0  0  0
  2 23  1  0  0  0  0
  2 24  1  0  0  0  0
  7 25  1  0  0  0  0
  7 26  1  0  0  0  0
  8 27  1  0  0  0  0
  8 28  1  0  0  0  0
  8 29  1  0  0  0  0
 10 30  1  0  0  0  0
 10 31  1  0  0  0  0
 15 32  1  0  0  0  0
 15 33  1  0  0  0  0
 16 34  1  0  0  0  0
 16 35  1  0  0  0  0
 16 36  1  0  0  0  0
 18 37  1  0  0  0  0
 18 38  1  0  0  0  0
 19 39  1  0  0  0  0
 19 40  1  0  0  0  0
 19 41  1  0  0  0  0
M  END
