 xtb: 6.7.1 (edcfbbe)
          04092505203D

 41 40  0     0  0            999 V2000
    3.9101   -1.6996   -2.2127 C   0  0  0  0  0  0  0  0  0  0  0  0
    4.3088   -0.7945   -1.0640 C   0  0  0  0  0  0  0  0  0  0  0  0
    3.2383   -0.6096   -0.1262 O   0  0  0  0  0  0  0  0  0  0  0  0
    1.9384    0.2508   -0.4750 P   0  0  0  0  0  0  0  0  0  0  0  0
    2.2804    1.8212   -1.5897 S   0  0  0  0  0  0  0  0  0  0  0  0
    1.3546    0.4655    0.9819 O   0  0  0  0  0  0  0  0  0  0  0  0
    1.6200    1.6627    1.7387 C   0  0  0  0  0  0  0  0  0  0  0  0
    3.0844    1.7907    2.0969 C   0  0  0  0  0  0  0  0  0  0  0  0
    0.5668   -1.1739   -1.2322 S   0  0  0  0  0  0  0  0  0  0  0  0
    0.3244   -2.1907    0.2442 C   0  0  0  0  0  0  0  0  0  0  0  0
   -0.8316   -1.4999    1.4861 S   0  0  0  0  0  0  0  0  0  0  0  0
   -2.0095   -0.1876    0.3329 P   0  0  0  0  0  0  0  0  0  0  0  0
   -1.3346    1.5576   -0.2962 S   0  0  0  0  0  0  0  0  0  0  0  0
   -3.3033   -0.0299    1.2447 O   0  0  0  0  0  0  0  0  0  0  0  0
   -3.4441    1.0102    2.2248 C   0  0  0  0  0  0  0  0  0  0  0  0
   -2.5276    0.7891    3.4107 C   0  0  0  0  0  0  0  0  0  0  0  0
   -2.5091   -1.1994   -0.7765 O   0  0  0  0  0  0  0  0  0  0  0  0
   -3.0077   -0.7665   -2.0575 C   0  0  0  0  0  0  0  0  0  0  0  0
   -4.3570   -0.0915   -1.9303 C   0  0  0  0  0  0  0  0  0  0  0  0
    3.1229   -1.2267   -2.7997 H   0  0  0  0  0  0  0  0  0  0  0  0
    4.7711   -1.8685   -2.8513 H   0  0  0  0  0  0  0  0  0  0  0  0
    3.5449   -2.6529   -1.8397 H   0  0  0  0  0  0  0  0  0  0  0  0
    4.6109    0.1881   -1.4405 H   0  0  0  0  0  0  0  0  0  0  0  0
    5.1120   -1.2285   -0.4668 H   0  0  0  0  0  0  0  0  0  0  0  0
    1.2777    2.5228    1.1537 H   0  0  0  0  0  0  0  0  0  0  0  0
    0.9939    1.5512    2.6258 H   0  0  0  0  0  0  0  0  0  0  0  0
    3.6742    1.9290    1.1914 H   0  0  0  0  0  0  0  0  0  0  0  0
    3.2205    2.6531    2.7417 H   0  0  0  0  0  0  0  0  0  0  0  0
    3.4245    0.8946    2.6093 H   0  0  0  0  0  0  0  0  0  0  0  0
    1.2765   -2.3332    0.7516 H   0  0  0  0  0  0  0  0  0  0  0  0
   -0.0845   -3.1332   -0.1125 H   0  0  0  0  0  0  0  0  0  0  0  0
   -3.2292    1.9709    1.7443 H   0  0  0  0  0  0  0  0  0  0  0  0
   -4.4956    0.9644    2.5110 H   0  0  0  0  0  0  0  0  0  0  0  0
   -2.6944   -0.1959    3.8388 H   0  0  0  0  0  0  0  0  0  0  0  0
   -1.4890    0.8560    3.0868 H   0  0  0  0  0  0  0  0  0  0  0  0
   -2.7148    1.5499    4.1616 H   0  0  0  0  0  0  0  0  0  0  0  0
   -2.2728   -0.0899   -2.5069 H   0  0  0  0  0  0  0  0  0  0  0  0
   -3.0637   -1.6868   -2.6402 H   0  0  0  0  0  0  0  0  0  0  0  0
   -4.2533    0.8368   -1.3694 H   0  0  0  0  0  0  0  0  0  0  0  0
   -4.7419    0.1353   -2.9195 H   0  0  0  0  0  0  0  0  0  0  0  0
   -5.0531   -0.7420   -1.4078 H   0  0  0  0  0  0  0  0  0  0  0  0
  1  2  1  0  0  0  0
  2  3  1  0  0  0  0
  3  4  2  0  0  0  0
  4  5  2  0  0  0  0
  4  6  2  0  0  0  0
  6  7  1  0  0  0  0
  7  8  1  0  0  0  0
  4  9  1  0  0  0  0
  9 10  1  0  0  0  0
 10 11  1  0  0  0  0
 11 12  1  0  0  0  0
 12 13  2  0  0  0  0
 12 14  2  0  0  0  0
 14 15  1  0  0  0  0
 15 16  1  0  0  0  0
 12 17  2  0  0  0  0
 17 18  1  0  0  0  0
 18 19  1  0  0  0  0
  1 20  1  0  0  0  0
  1 21  1  0  0  0  0
  1 22  1  0  0  0  0
  2 23  1  0  0  0  0
  2 24  1  0  0  0  0
  7 25  1  0  0  0  0
  7 26  1  0  0  0  0
  8 27  1  0  0  0  0
  8 28  1  0  0  0  0
  8 29  1  0  0  0  0
 10 30  1  0  0  0  0
 10 31  1  0  0  0  0
 15 32  1  0  0  0  0
 15 33  1  0  0  0  0
 16 34  1  0  0  0  0
 16 35  1  0  0  0  0
 16 36  1  0  0  0  0
 18 37  1  0  0  0  0
 18 38  1  0  0  0  0
 19 39  1  0  0  0  0
 19 40  1  0  0  0  0
 19 41  1  0  0  0  0
M  END
