 xtb: 6.7.1 (edcfbbe)
          04092505203D

 41 40  0     0  0            999 V2000
    4.0753    0.1181   -2.7078 C   0  0  0  0  0  0  0  0  0  0  0  0
    4.7646   -0.5100   -1.5125 C   0  0  0  0  0  0  0  0  0  0  0  0
    3.8454   -1.2400   -0.6822 O   0  0  0  0  0  0  0  0  0  0  0  0
    2.7573   -0.5060    0.1988 P   0  0  0  0  0  0  0  0  0  0  0  0
    3.3296    1.2245    0.9350 S   0  0  0  0  0  0  0  0  0  0  0  0
    2.5446   -1.7102    1.2048 O   0  0  0  0  0  0  0  0  0  0  0  0
    1.3862   -1.8818    2.0383 C   0  0  0  0  0  0  0  0  0  0  0  0
    1.3061   -0.8470    3.1436 C   0  0  0  0  0  0  0  0  0  0  0  0
    0.9884   -0.4622   -1.0062 S   0  0  0  0  0  0  0  0  0  0  0  0
    0.3296    1.1485   -0.4918 C   0  0  0  0  0  0  0  0  0  0  0  0
   -0.9279    1.0214    0.7992 S   0  0  0  0  0  0  0  0  0  0  0  0
   -2.4905    0.2933   -0.4635 P   0  0  0  0  0  0  0  0  0  0  0  0
   -2.4726    0.9302   -2.3110 S   0  0  0  0  0  0  0  0  0  0  0  0
   -3.8160    0.5906    0.3629 O   0  0  0  0  0  0  0  0  0  0  0  0
   -4.5310    1.8351    0.2554 C   0  0  0  0  0  0  0  0  0  0  0  0
   -3.7302    3.0110    0.7752 C   0  0  0  0  0  0  0  0  0  0  0  0
   -2.3768   -1.2789   -0.3853 O   0  0  0  0  0  0  0  0  0  0  0  0
   -2.4588   -2.0312    0.8501 C   0  0  0  0  0  0  0  0  0  0  0  0
   -3.8701   -2.5254    1.0939 C   0  0  0  0  0  0  0  0  0  0  0  0
    4.8209    0.5473   -3.3693 H   0  0  0  0  0  0  0  0  0  0  0  0
    3.5007   -0.6299   -3.2486 H   0  0  0  0  0  0  0  0  0  0  0  0
    3.4017    0.9081   -2.3777 H   0  0  0  0  0  0  0  0  0  0  0  0
    5.2539    0.2574   -0.9036 H   0  0  0  0  0  0  0  0  0  0  0  0
    5.4947   -1.2606   -1.8182 H   0  0  0  0  0  0  0  0  0  0  0  0
    0.4920   -1.8472    1.4074 H   0  0  0  0  0  0  0  0  0  0  0  0
    1.5089   -2.8878    2.4435 H   0  0  0  0  0  0  0  0  0  0  0  0
    2.2378   -0.8248    3.7030 H   0  0  0  0  0  0  0  0  0  0  0  0
    1.1260    0.1439    2.7291 H   0  0  0  0  0  0  0  0  0  0  0  0
    0.4907   -1.0995    3.8137 H   0  0  0  0  0  0  0  0  0  0  0  0
   -0.1179    1.6066   -1.3740 H   0  0  0  0  0  0  0  0  0  0  0  0
    1.1438    1.7561   -0.0896 H   0  0  0  0  0  0  0  0  0  0  0  0
   -4.7996    1.9870   -0.7944 H   0  0  0  0  0  0  0  0  0  0  0  0
   -5.4314    1.6691    0.8486 H   0  0  0  0  0  0  0  0  0  0  0  0
   -4.3626    3.8928    0.7944 H   0  0  0  0  0  0  0  0  0  0  0  0
   -3.3627    2.8080    1.7780 H   0  0  0  0  0  0  0  0  0  0  0  0
   -2.8812    3.2036    0.1209 H   0  0  0  0  0  0  0  0  0  0  0  0
   -1.7698   -2.8657    0.7038 H   0  0  0  0  0  0  0  0  0  0  0  0
   -2.1143   -1.3988    1.6738 H   0  0  0  0  0  0  0  0  0  0  0  0
   -3.8755   -3.1564    1.9773 H   0  0  0  0  0  0  0  0  0  0  0  0
   -4.5437   -1.6871    1.2472 H   0  0  0  0  0  0  0  0  0  0  0  0
   -4.2149   -3.1012    0.2394 H   0  0  0  0  0  0  0  0  0  0  0  0
  1  2  1  0  0  0  0
  2  3  1  0  0  0  0
  3  4  2  0  0  0  0
  4  5  2  0  0  0  0
  4  6  2  0  0  0  0
  6  7  1  0  0  0  0
  7  8  1  0  0  0  0
  4  9  1  0  0  0  0
  9 10  1  0  0  0  0
 10 11  1  0  0  0  0
 11 12  1  0  0  0  0
 12 13  2  0  0  0  0
 12 14  2  0  0  0  0
 14 15  1  0  0  0  0
 15 16  1  0  0  0  0
 12 17  2  0  0  0  0
 17 18  1  0  0  0  0
 18 19  1  0  0  0  0
  1 20  1  0  0  0  0
  1 21  1  0  0  0  0
  1 22  1  0  0  0  0
  2 23  1  0  0  0  0
  2 24  1  0  0  0  0
  7 25  1  0  0  0  0
  7 26  1  0  0  0  0
  8 27  1  0  0  0  0
  8 28  1  0  0  0  0
  8 29  1  0  0  0  0
 10 30  1  0  0  0  0
 10 31  1  0  0  0  0
 15 32  1  0  0  0  0
 15 33  1  0  0  0  0
 16 34  1  0  0  0  0
 16 35  1  0  0  0  0
 16 36  1  0  0  0  0
 18 37  1  0  0  0  0
 18 38  1  0  0  0  0
 19 39  1  0  0  0  0
 19 40  1  0  0  0  0
 19 41  1  0  0  0  0
M  END
