 xtb: 6.7.1 (edcfbbe)
          04092505213D

 41 40  0     0  0            999 V2000
    4.8291    0.7982    0.3760 C   0  0  0  0  0  0  0  0  0  0  0  0
    3.6039    1.2935   -0.3617 C   0  0  0  0  0  0  0  0  0  0  0  0
    2.7722    0.1947   -0.7934 O   0  0  0  0  0  0  0  0  0  0  0  0
    1.9432   -0.6683    0.2369 P   0  0  0  0  0  0  0  0  0  0  0  0
    1.3841    0.2298    1.8916 S   0  0  0  0  0  0  0  0  0  0  0  0
    2.8841   -1.9322    0.4506 O   0  0  0  0  0  0  0  0  0  0  0  0
    2.5730   -2.9823    1.3887 C   0  0  0  0  0  0  0  0  0  0  0  0
    3.3292   -2.7786    2.6876 C   0  0  0  0  0  0  0  0  0  0  0  0
    0.4544   -1.4616   -1.0669 S   0  0  0  0  0  0  0  0  0  0  0  0
    0.0795    0.0243   -2.0405 C   0  0  0  0  0  0  0  0  0  0  0  0
   -0.3406    1.4688   -1.0338 S   0  0  0  0  0  0  0  0  0  0  0  0
   -2.2125    0.7669   -0.3618 P   0  0  0  0  0  0  0  0  0  0  0  0
   -3.2702   -0.2866   -1.6386 S   0  0  0  0  0  0  0  0  0  0  0  0
   -2.8984    2.0622    0.2501 O   0  0  0  0  0  0  0  0  0  0  0  0
   -3.0514    3.3327   -0.4114 C   0  0  0  0  0  0  0  0  0  0  0  0
   -3.6553    3.2126   -1.7951 C   0  0  0  0  0  0  0  0  0  0  0  0
   -1.8443   -0.0101    0.9648 O   0  0  0  0  0  0  0  0  0  0  0  0
   -2.6129   -1.0991    1.5183 C   0  0  0  0  0  0  0  0  0  0  0  0
   -1.6701   -2.2101    1.9349 C   0  0  0  0  0  0  0  0  0  0  0  0
    5.3720    0.0828   -0.2359 H   0  0  0  0  0  0  0  0  0  0  0  0
    5.4739    1.6388    0.6119 H   0  0  0  0  0  0  0  0  0  0  0  0
    4.5263    0.3112    1.3020 H   0  0  0  0  0  0  0  0  0  0  0  0
    3.8632    1.8069   -1.2883 H   0  0  0  0  0  0  0  0  0  0  0  0
    3.0056    1.9534    0.2748 H   0  0  0  0  0  0  0  0  0  0  0  0
    1.4940   -3.0059    1.5648 H   0  0  0  0  0  0  0  0  0  0  0  0
    2.8790   -3.9029    0.8885 H   0  0  0  0  0  0  0  0  0  0  0  0
    4.3966   -2.7250    2.4933 H   0  0  0  0  0  0  0  0  0  0  0  0
    3.0101   -1.8548    3.1655 H   0  0  0  0  0  0  0  0  0  0  0  0
    3.1258   -3.6106    3.3539 H   0  0  0  0  0  0  0  0  0  0  0  0
   -0.7743   -0.2413   -2.6662 H   0  0  0  0  0  0  0  0  0  0  0  0
    0.9449    0.2958   -2.6391 H   0  0  0  0  0  0  0  0  0  0  0  0
   -3.7026    3.8934    0.2618 H   0  0  0  0  0  0  0  0  0  0  0  0
   -2.0680    3.8094   -0.4564 H   0  0  0  0  0  0  0  0  0  0  0  0
   -3.8263    4.2054   -2.1989 H   0  0  0  0  0  0  0  0  0  0  0  0
   -2.9790    2.6720   -2.4560 H   0  0  0  0  0  0  0  0  0  0  0  0
   -4.5989    2.6737   -1.7522 H   0  0  0  0  0  0  0  0  0  0  0  0
   -3.1524   -0.6939    2.3769 H   0  0  0  0  0  0  0  0  0  0  0  0
   -3.3287   -1.4463    0.7650 H   0  0  0  0  0  0  0  0  0  0  0  0
   -2.2320   -2.9772    2.4573 H   0  0  0  0  0  0  0  0  0  0  0  0
   -1.1939   -2.6473    1.0594 H   0  0  0  0  0  0  0  0  0  0  0  0
   -0.9040   -1.8094    2.5949 H   0  0  0  0  0  0  0  0  0  0  0  0
  1  2  1  0  0  0  0
  2  3  1  0  0  0  0
  3  4  2  0  0  0  0
  4  5  2  0  0  0  0
  4  6  2  0  0  0  0
  6  7  1  0  0  0  0
  7  8  1  0  0  0  0
  4  9  1  0  0  0  0
  9 10  1  0  0  0  0
 10 11  1  0  0  0  0
 11 12  1  0  0  0  0
 12 13  2  0  0  0  0
 12 14  2  0  0  0  0
 14 15  1  0  0  0  0
 15 16  1  0  0  0  0
 12 17  2  0  0  0  0
 17 18  1  0  0  0  0
 18 19  1  0  0  0  0
  1 20  1  0  0  0  0
  1 21  1  0  0  0  0
  1 22  1  0  0  0  0
  2 23  1  0  0  0  0
  2 24  1  0  0  0  0
  7 25  1  0  0  0  0
  7 26  1  0  0  0  0
  8 27  1  0  0  0  0
  8 28  1  0  0  0  0
  8 29  1  0  0  0  0
 10 30  1  0  0  0  0
 10 31  1  0  0  0  0
 15 32  1  0  0  0  0
 15 33  1  0  0  0  0
 16 34  1  0  0  0  0
 16 35  1  0  0  0  0
 16 36  1  0  0  0  0
 18 37  1  0  0  0  0
 18 38  1  0  0  0  0
 19 39  1  0  0  0  0
 19 40  1  0  0  0  0
 19 41  1  0  0  0  0
M  END
