 xtb: 6.7.1 (edcfbbe)
          04092505213D

 41 40  0     0  0            999 V2000
    1.4993   -2.8774    1.2286 C   0  0  0  0  0  0  0  0  0  0  0  0
    1.9340   -1.5515    1.8197 C   0  0  0  0  0  0  0  0  0  0  0  0
    2.9839   -0.9264    1.0632 O   0  0  0  0  0  0  0  0  0  0  0  0
    2.8136   -0.2575   -0.3706 P   0  0  0  0  0  0  0  0  0  0  0  0
    2.6233   -1.4743   -1.8948 S   0  0  0  0  0  0  0  0  0  0  0  0
    4.1503    0.5565   -0.5134 O   0  0  0  0  0  0  0  0  0  0  0  0
    4.4926    1.8021    0.1446 C   0  0  0  0  0  0  0  0  0  0  0  0
    4.2907    1.7662    1.6437 C   0  0  0  0  0  0  0  0  0  0  0  0
    1.2572    1.1942   -0.1457 S   0  0  0  0  0  0  0  0  0  0  0  0
   -0.0010    0.4111   -1.1802 C   0  0  0  0  0  0  0  0  0  0  0  0
   -1.0622   -0.7344   -0.2641 S   0  0  0  0  0  0  0  0  0  0  0  0
   -2.8455    0.4442   -0.1340 P   0  0  0  0  0  0  0  0  0  0  0  0
   -2.7886    2.2163   -0.9572 S   0  0  0  0  0  0  0  0  0  0  0  0
   -3.2602    0.4129    1.4047 O   0  0  0  0  0  0  0  0  0  0  0  0
   -2.7920    1.3771    2.3632 C   0  0  0  0  0  0  0  0  0  0  0  0
   -1.3251    1.1905    2.6938 C   0  0  0  0  0  0  0  0  0  0  0  0
   -3.9606   -0.4698   -0.7682 O   0  0  0  0  0  0  0  0  0  0  0  0
   -4.1813   -1.8459   -0.3573 C   0  0  0  0  0  0  0  0  0  0  0  0
   -3.8261   -2.7850   -1.4924 C   0  0  0  0  0  0  0  0  0  0  0  0
    2.3579   -3.5309    1.0975 H   0  0  0  0  0  0  0  0  0  0  0  0
    0.7846   -3.3496    1.8945 H   0  0  0  0  0  0  0  0  0  0  0  0
    1.0278   -2.7256    0.2593 H   0  0  0  0  0  0  0  0  0  0  0  0
    2.3743   -1.6843    2.8096 H   0  0  0  0  0  0  0  0  0  0  0  0
    1.0874   -0.8610    1.8810 H   0  0  0  0  0  0  0  0  0  0  0  0
    5.5433    1.9370   -0.1170 H   0  0  0  0  0  0  0  0  0  0  0  0
    3.8936    2.5954   -0.3097 H   0  0  0  0  0  0  0  0  0  0  0  0
    4.6768    2.6865    2.0712 H   0  0  0  0  0  0  0  0  0  0  0  0
    3.2315    1.6863    1.8804 H   0  0  0  0  0  0  0  0  0  0  0  0
    4.8184    0.9197    2.0749 H   0  0  0  0  0  0  0  0  0  0  0  0
    0.5030   -0.1592   -1.9631 H   0  0  0  0  0  0  0  0  0  0  0  0
   -0.6201    1.2097   -1.5938 H   0  0  0  0  0  0  0  0  0  0  0  0
   -2.9753    2.3798    1.9646 H   0  0  0  0  0  0  0  0  0  0  0  0
   -3.4253    1.2036    3.2346 H   0  0  0  0  0  0  0  0  0  0  0  0
   -0.7094    1.4518    1.8339 H   0  0  0  0  0  0  0  0  0  0  0  0
   -1.0599    1.8430    3.5194 H   0  0  0  0  0  0  0  0  0  0  0  0
   -1.1331    0.1579    2.9752 H   0  0  0  0  0  0  0  0  0  0  0  0
   -3.5858   -2.0547    0.5338 H   0  0  0  0  0  0  0  0  0  0  0  0
   -5.2428   -1.9022   -0.1117 H   0  0  0  0  0  0  0  0  0  0  0  0
   -4.0809   -3.8002   -1.2058 H   0  0  0  0  0  0  0  0  0  0  0  0
   -4.3812   -2.5144   -2.3862 H   0  0  0  0  0  0  0  0  0  0  0  0
   -2.7622   -2.7350   -1.7113 H   0  0  0  0  0  0  0  0  0  0  0  0
  1  2  1  0  0  0  0
  2  3  1  0  0  0  0
  3  4  2  0  0  0  0
  4  5  2  0  0  0  0
  4  6  2  0  0  0  0
  6  7  1  0  0  0  0
  7  8  1  0  0  0  0
  4  9  1  0  0  0  0
  9 10  1  0  0  0  0
 10 11  1  0  0  0  0
 11 12  1  0  0  0  0
 12 13  2  0  0  0  0
 12 14  2  0  0  0  0
 14 15  1  0  0  0  0
 15 16  1  0  0  0  0
 12 17  2  0  0  0  0
 17 18  1  0  0  0  0
 18 19  1  0  0  0  0
  1 20  1  0  0  0  0
  1 21  1  0  0  0  0
  1 22  1  0  0  0  0
  2 23  1  0  0  0  0
  2 24  1  0  0  0  0
  7 25  1  0  0  0  0
  7 26  1  0  0  0  0
  8 27  1  0  0  0  0
  8 28  1  0  0  0  0
  8 29  1  0  0  0  0
 10 30  1  0  0  0  0
 10 31  1  0  0  0  0
 15 32  1  0  0  0  0
 15 33  1  0  0  0  0
 16 34  1  0  0  0  0
 16 35  1  0  0  0  0
 16 36  1  0  0  0  0
 18 37  1  0  0  0  0
 18 38  1  0  0  0  0
 19 39  1  0  0  0  0
 19 40  1  0  0  0  0
 19 41  1  0  0  0  0
M  END
