 xtb: 6.7.1 (edcfbbe)
          04092507313D

 38 37  0     0  0            999 V2000
    3.8382   -3.6686    0.1169 C   0  0  0  0  0  0  0  0  0  0  0  0
    3.9675   -2.9311   -1.2061 C   0  0  0  0  0  0  0  0  0  0  0  0
    2.6832   -2.4517   -1.6563 O   0  0  0  0  0  0  0  0  0  0  0  0
    2.2575   -1.2874   -1.2191 C   0  0  0  0  0  0  0  0  0  0  0  0
    2.8840   -0.5536   -0.4812 O   0  0  0  0  0  0  0  0  0  0  0  0
    0.8716   -0.9692   -1.7345 C   0  0  0  0  0  0  0  0  0  0  0  0
    0.5225    0.4859   -1.4427 C   0  0  0  0  0  0  0  0  0  0  0  0
    0.9778    1.1745   -2.1550 H   0  0  0  0  0  0  0  0  0  0  0  0
    0.9183    0.8836   -0.0349 C   0  0  0  0  0  0  0  0  0  0  0  0
    0.5009    0.2756    0.9346 O   0  0  0  0  0  0  0  0  0  0  0  0
    1.6405    1.9686   -0.0079 O   0  0  0  0  0  0  0  0  0  0  0  0
    2.0510    2.5047    1.2674 C   0  0  0  0  0  0  0  0  0  0  0  0
    1.1000    3.6034    1.7127 C   0  0  0  0  0  0  0  0  0  0  0  0
   -1.2780    0.7593   -1.5525 S   0  0  0  0  0  0  0  0  0  0  0  0
   -2.0404    0.1382    0.3321 P   0  0  0  0  0  0  0  0  0  0  0  0
   -2.0214    1.3083    1.9139 S   0  0  0  0  0  0  0  0  0  0  0  0
   -3.5582   -0.1090   -0.1295 O   0  0  0  0  0  0  0  0  0  0  0  0
   -4.4800    0.9656   -0.3275 C   0  0  0  0  0  0  0  0  0  0  0  0
   -1.6170   -1.3901    0.4655 O   0  0  0  0  0  0  0  0  0  0  0  0
   -1.3636   -1.9931    1.7421 C   0  0  0  0  0  0  0  0  0  0  0  0
    3.1276   -4.4851    0.0235 H   0  0  0  0  0  0  0  0  0  0  0  0
    4.8063   -4.0670    0.4015 H   0  0  0  0  0  0  0  0  0  0  0  0
    3.4958   -2.9875    0.8933 H   0  0  0  0  0  0  0  0  0  0  0  0
    4.3013   -3.5960   -2.0024 H   0  0  0  0  0  0  0  0  0  0  0  0
    4.6437   -2.0772   -1.1098 H   0  0  0  0  0  0  0  0  0  0  0  0
    0.1765   -1.6344   -1.2137 H   0  0  0  0  0  0  0  0  0  0  0  0
    0.8049   -1.1842   -2.8002 H   0  0  0  0  0  0  0  0  0  0  0  0
    2.0812    1.6888    1.9940 H   0  0  0  0  0  0  0  0  0  0  0  0
    3.0548    2.8914    1.0890 H   0  0  0  0  0  0  0  0  0  0  0  0
    0.1082    3.1948    1.8988 H   0  0  0  0  0  0  0  0  0  0  0  0
    1.4717    4.0461    2.6307 H   0  0  0  0  0  0  0  0  0  0  0  0
    1.0284    4.3692    0.9458 H   0  0  0  0  0  0  0  0  0  0  0  0
   -5.4676    0.5114   -0.3218 H   0  0  0  0  0  0  0  0  0  0  0  0
   -4.2846    1.4497   -1.2840 H   0  0  0  0  0  0  0  0  0  0  0  0
   -4.3890    1.6909    0.4838 H   0  0  0  0  0  0  0  0  0  0  0  0
   -2.2468   -1.9283    2.3759 H   0  0  0  0  0  0  0  0  0  0  0  0
   -0.5249   -1.4892    2.2236 H   0  0  0  0  0  0  0  0  0  0  0  0
   -1.1201   -3.0301    1.5259 H   0  0  0  0  0  0  0  0  0  0  0  0
  1  2  1  0  0  0  0
  2  3  1  0  0  0  0
  3  4  4  0  0  0  0
  4  5  2  0  0  0  0
  4  6  1  0  0  0  0
  6  7  1  0  0  0  0
  7  8  1  0  0  0  0
  7  9  1  0  0  0  0
  9 10  2  0  0  0  0
  9 11  4  0  0  0  0
 11 12  1  0  0  0  0
 12 13  1  0  0  0  0
  7 14  1  0  0  0  0
 14 15  1  0  0  0  0
 15 16  2  0  0  0  0
 15 17  1  0  0  0  0
 17 18  1  0  0  0  0
 15 19  1  0  0  0  0
 19 20  1  0  0  0  0
  1 21  1  0  0  0  0
  1 22  1  0  0  0  0
  1 23  1  0  0  0  0
  2 24  1  0  0  0  0
  2 25  1  0  0  0  0
  6 26  1  0  0  0  0
  6 27  1  0  0  0  0
 12 28  1  0  0  0  0
 12 29  1  0  0  0  0
 13 30  1  0  0  0  0
 13 31  1  0  0  0  0
 13 32  1  0  0  0  0
 18 33  1  0  0  0  0
 18 34  1  0  0  0  0
 18 35  1  0  0  0  0
 20 36  1  0  0  0  0
 20 37  1  0  0  0  0
 20 38  1  0  0  0  0
M  END
