 xtb: 6.7.1 (edcfbbe)
          04092505213D

 41 40  0     0  0            999 V2000
    0.7195   -0.4310    3.5064 C   0  0  0  0  0  0  0  0  0  0  0  0
    1.7108    0.2072    2.5555 C   0  0  0  0  0  0  0  0  0  0  0  0
    2.1346   -0.8111    1.6124 O   0  0  0  0  0  0  0  0  0  0  0  0
    2.6797   -0.4959    0.1712 P   0  0  0  0  0  0  0  0  0  0  0  0
    3.1538   -2.1753   -0.7134 S   0  0  0  0  0  0  0  0  0  0  0  0
    3.8182    0.5667    0.4819 O   0  0  0  0  0  0  0  0  0  0  0  0
    4.4147    1.4589   -0.4780 C   0  0  0  0  0  0  0  0  0  0  0  0
    4.9617    0.7350   -1.6900 C   0  0  0  0  0  0  0  0  0  0  0  0
    1.1910    0.6755   -0.8282 S   0  0  0  0  0  0  0  0  0  0  0  0
    0.1157   -0.7199   -1.2291 C   0  0  0  0  0  0  0  0  0  0  0  0
   -1.0512   -1.0984    0.0923 S   0  0  0  0  0  0  0  0  0  0  0  0
   -2.4868    0.3868   -0.4788 P   0  0  0  0  0  0  0  0  0  0  0  0
   -2.7948    0.5500   -2.4046 S   0  0  0  0  0  0  0  0  0  0  0  0
   -1.9621    1.7647    0.0713 O   0  0  0  0  0  0  0  0  0  0  0  0
   -1.6970    2.0377    1.4697 C   0  0  0  0  0  0  0  0  0  0  0  0
   -2.8655    2.7659    2.1014 C   0  0  0  0  0  0  0  0  0  0  0  0
   -3.7136    0.0756    0.4784 O   0  0  0  0  0  0  0  0  0  0  0  0
   -4.3235   -1.2175    0.6504 C   0  0  0  0  0  0  0  0  0  0  0  0
   -4.7787   -1.8296   -0.6573 C   0  0  0  0  0  0  0  0  0  0  0  0
    0.3736    0.3132    4.2166 H   0  0  0  0  0  0  0  0  0  0  0  0
   -0.1262   -0.8308    2.9520 H   0  0  0  0  0  0  0  0  0  0  0  0
    1.1937   -1.2482    4.0417 H   0  0  0  0  0  0  0  0  0  0  0  0
    2.6003    0.5641    3.0773 H   0  0  0  0  0  0  0  0  0  0  0  0
    1.2631    1.0352    1.9976 H   0  0  0  0  0  0  0  0  0  0  0  0
    3.6608    2.1936   -0.7742 H   0  0  0  0  0  0  0  0  0  0  0  0
    5.2096    1.9486    0.0874 H   0  0  0  0  0  0  0  0  0  0  0  0
    5.4717    1.4435   -2.3348 H   0  0  0  0  0  0  0  0  0  0  0  0
    5.6587   -0.0423   -1.3856 H   0  0  0  0  0  0  0  0  0  0  0  0
    4.1506    0.2684   -2.2479 H   0  0  0  0  0  0  0  0  0  0  0  0
    0.7342   -1.6047   -1.3931 H   0  0  0  0  0  0  0  0  0  0  0  0
   -0.4461   -0.4565   -2.1278 H   0  0  0  0  0  0  0  0  0  0  0  0
   -1.4935    1.0954    1.9849 H   0  0  0  0  0  0  0  0  0  0  0  0
   -0.8004    2.6606    1.4586 H   0  0  0  0  0  0  0  0  0  0  0  0
   -2.6173    3.0135    3.1287 H   0  0  0  0  0  0  0  0  0  0  0  0
   -3.0745    3.6796    1.5520 H   0  0  0  0  0  0  0  0  0  0  0  0
   -3.7531    2.1392    2.0857 H   0  0  0  0  0  0  0  0  0  0  0  0
   -3.6041   -1.8705    1.1524 H   0  0  0  0  0  0  0  0  0  0  0  0
   -5.1686   -1.0174    1.3114 H   0  0  0  0  0  0  0  0  0  0  0  0
   -3.9204   -2.0405   -1.2941 H   0  0  0  0  0  0  0  0  0  0  0  0
   -5.3063   -2.7569   -0.4582 H   0  0  0  0  0  0  0  0  0  0  0  0
   -5.4379   -1.1463   -1.1876 H   0  0  0  0  0  0  0  0  0  0  0  0
  1  2  1  0  0  0  0
  2  3  1  0  0  0  0
  3  4  2  0  0  0  0
  4  5  2  0  0  0  0
  4  6  2  0  0  0  0
  6  7  1  0  0  0  0
  7  8  1  0  0  0  0
  4  9  1  0  0  0  0
  9 10  1  0  0  0  0
 10 11  1  0  0  0  0
 11 12  1  0  0  0  0
 12 13  2  0  0  0  0
 12 14  2  0  0  0  0
 14 15  1  0  0  0  0
 15 16  1  0  0  0  0
 12 17  2  0  0  0  0
 17 18  1  0  0  0  0
 18 19  1  0  0  0  0
  1 20  1  0  0  0  0
  1 21  1  0  0  0  0
  1 22  1  0  0  0  0
  2 23  1  0  0  0  0
  2 24  1  0  0  0  0
  7 25  1  0  0  0  0
  7 26  1  0  0  0  0
  8 27  1  0  0  0  0
  8 28  1  0  0  0  0
  8 29  1  0  0  0  0
 10 30  1  0  0  0  0
 10 31  1  0  0  0  0
 15 32  1  0  0  0  0
 15 33  1  0  0  0  0
 16 34  1  0  0  0  0
 16 35  1  0  0  0  0
 16 36  1  0  0  0  0
 18 37  1  0  0  0  0
 18 38  1  0  0  0  0
 19 39  1  0  0  0  0
 19 40  1  0  0  0  0
 19 41  1  0  0  0  0
M  END
