 xtb: 6.7.1 (edcfbbe)
          04092505213D

 41 40  0     0  0            999 V2000
    5.1753   -0.3950   -0.8160 C   0  0  0  0  0  0  0  0  0  0  0  0
    4.7095    0.7029    0.1170 C   0  0  0  0  0  0  0  0  0  0  0  0
    3.5767    0.3043    0.9233 O   0  0  0  0  0  0  0  0  0  0  0  0
    2.1224   -0.0360    0.3955 P   0  0  0  0  0  0  0  0  0  0  0  0
    0.8625    0.0626    1.8859 S   0  0  0  0  0  0  0  0  0  0  0  0
    2.1520   -1.4456   -0.3601 O   0  0  0  0  0  0  0  0  0  0  0  0
    1.8628   -2.6803    0.3134 C   0  0  0  0  0  0  0  0  0  0  0  0
    2.9803   -3.0705    1.2579 C   0  0  0  0  0  0  0  0  0  0  0  0
    1.9030    1.2344   -1.2720 S   0  0  0  0  0  0  0  0  0  0  0  0
    0.2125    0.8099   -1.7507 C   0  0  0  0  0  0  0  0  0  0  0  0
   -1.0470    1.6531   -0.7367 S   0  0  0  0  0  0  0  0  0  0  0  0
   -2.3363   -0.0086   -0.3854 P   0  0  0  0  0  0  0  0  0  0  0  0
   -1.5009   -1.7785   -0.4440 S   0  0  0  0  0  0  0  0  0  0  0  0
   -3.4366    0.0495   -1.5118 O   0  0  0  0  0  0  0  0  0  0  0  0
   -4.0500    1.2334   -2.0772 C   0  0  0  0  0  0  0  0  0  0  0  0
   -4.6964    2.1271   -1.0413 C   0  0  0  0  0  0  0  0  0  0  0  0
   -3.1629    0.3952    0.9037 O   0  0  0  0  0  0  0  0  0  0  0  0
   -2.6664    0.5078    2.2488 C   0  0  0  0  0  0  0  0  0  0  0  0
   -2.6334   -0.8390    2.9421 C   0  0  0  0  0  0  0  0  0  0  0  0
    4.3921   -0.6418   -1.5295 H   0  0  0  0  0  0  0  0  0  0  0  0
    6.0506   -0.0497   -1.3573 H   0  0  0  0  0  0  0  0  0  0  0  0
    5.4344   -1.2864   -0.2507 H   0  0  0  0  0  0  0  0  0  0  0  0
    4.4342    1.6004   -0.4426 H   0  0  0  0  0  0  0  0  0  0  0  0
    5.4698    0.9499    0.8599 H   0  0  0  0  0  0  0  0  0  0  0  0
    0.9153   -2.5745    0.8513 H   0  0  0  0  0  0  0  0  0  0  0  0
    1.7333   -3.4015   -0.4948 H   0  0  0  0  0  0  0  0  0  0  0  0
    3.1004   -2.2997    2.0195 H   0  0  0  0  0  0  0  0  0  0  0  0
    2.7304   -4.0097    1.7411 H   0  0  0  0  0  0  0  0  0  0  0  0
    3.9143   -3.1818    0.7138 H   0  0  0  0  0  0  0  0  0  0  0  0
    0.0630   -0.2700   -1.6608 H   0  0  0  0  0  0  0  0  0  0  0  0
    0.1094    1.1433   -2.7800 H   0  0  0  0  0  0  0  0  0  0  0  0
   -3.2835    1.7798   -2.6328 H   0  0  0  0  0  0  0  0  0  0  0  0
   -4.7861    0.8206   -2.7686 H   0  0  0  0  0  0  0  0  0  0  0  0
   -3.9380    2.5769   -0.4035 H   0  0  0  0  0  0  0  0  0  0  0  0
   -5.2425    2.9163   -1.5490 H   0  0  0  0  0  0  0  0  0  0  0  0
   -5.3828    1.5538   -0.4238 H   0  0  0  0  0  0  0  0  0  0  0  0
   -1.6709    0.9584    2.2384 H   0  0  0  0  0  0  0  0  0  0  0  0
   -3.3721    1.1853    2.7334 H   0  0  0  0  0  0  0  0  0  0  0  0
   -2.3432   -0.6980    3.9780 H   0  0  0  0  0  0  0  0  0  0  0  0
   -3.6108   -1.3116    2.8962 H   0  0  0  0  0  0  0  0  0  0  0  0
   -1.9035   -1.4887    2.4637 H   0  0  0  0  0  0  0  0  0  0  0  0
  1  2  1  0  0  0  0
  2  3  1  0  0  0  0
  3  4  2  0  0  0  0
  4  5  2  0  0  0  0
  4  6  1  0  0  0  0
  6  7  1  0  0  0  0
  7  8  1  0  0  0  0
  4  9  1  0  0  0  0
  9 10  1  0  0  0  0
 10 11  1  0  0  0  0
 11 12  1  0  0  0  0
 12 13  2  0  0  0  0
 12 14  2  0  0  0  0
 14 15  1  0  0  0  0
 15 16  1  0  0  0  0
 12 17  2  0  0  0  0
 17 18  1  0  0  0  0
 18 19  1  0  0  0  0
  1 20  1  0  0  0  0
  1 21  1  0  0  0  0
  1 22  1  0  0  0  0
  2 23  1  0  0  0  0
  2 24  1  0  0  0  0
  7 25  1  0  0  0  0
  7 26  1  0  0  0  0
  8 27  1  0  0  0  0
  8 28  1  0  0  0  0
  8 29  1  0  0  0  0
 10 30  1  0  0  0  0
 10 31  1  0  0  0  0
 15 32  1  0  0  0  0
 15 33  1  0  0  0  0
 16 34  1  0  0  0  0
 16 35  1  0  0  0  0
 16 36  1  0  0  0  0
 18 37  1  0  0  0  0
 18 38  1  0  0  0  0
 19 39  1  0  0  0  0
 19 40  1  0  0  0  0
 19 41  1  0  0  0  0
M  END
