 xtb: 6.7.1 (edcfbbe)
          04092507313D

 38 37  0     0  0            999 V2000
    4.2834   -1.9301    1.0761 C   0  0  0  0  0  0  0  0  0  0  0  0
    2.8093   -1.9163    0.7245 C   0  0  0  0  0  0  0  0  0  0  0  0
    2.6112   -0.9660   -0.3414 O   0  0  0  0  0  0  0  0  0  0  0  0
    1.4983   -1.0188   -1.0362 C   0  0  0  0  0  0  0  0  0  0  0  0
    0.5953   -1.8083   -0.8302 O   0  0  0  0  0  0  0  0  0  0  0  0
    1.4604    0.0283   -2.1295 C   0  0  0  0  0  0  0  0  0  0  0  0
    0.2760    0.9774   -1.9193 C   0  0  0  0  0  0  0  0  0  0  0  0
    0.2171    1.6767   -2.7574 H   0  0  0  0  0  0  0  0  0  0  0  0
    0.3973    1.7625   -0.6272 C   0  0  0  0  0  0  0  0  0  0  0  0
   -0.5161    1.8192    0.1782 O   0  0  0  0  0  0  0  0  0  0  0  0
    1.5529    2.3412   -0.4993 O   0  0  0  0  0  0  0  0  0  0  0  0
    1.8546    3.0430    0.7291 C   0  0  0  0  0  0  0  0  0  0  0  0
    2.4375    2.0817    1.7511 C   0  0  0  0  0  0  0  0  0  0  0  0
   -1.3384    0.1230   -1.8984 S   0  0  0  0  0  0  0  0  0  0  0  0
   -1.6379   -0.3595    0.1446 P   0  0  0  0  0  0  0  0  0  0  0  0
   -0.4584   -0.5889    1.7120 S   0  0  0  0  0  0  0  0  0  0  0  0
   -2.9664    0.4500    0.5462 O   0  0  0  0  0  0  0  0  0  0  0  0
   -3.0304    1.5644    1.4324 C   0  0  0  0  0  0  0  0  0  0  0  0
   -2.3335   -1.7410   -0.2775 O   0  0  0  0  0  0  0  0  0  0  0  0
   -2.8678   -2.6479    0.6868 C   0  0  0  0  0  0  0  0  0  0  0  0
    4.5958   -0.9466    1.4128 H   0  0  0  0  0  0  0  0  0  0  0  0
    4.4505   -2.6479    1.8719 H   0  0  0  0  0  0  0  0  0  0  0  0
    4.8723   -2.2116    0.2082 H   0  0  0  0  0  0  0  0  0  0  0  0
    2.1887   -1.6097    1.5726 H   0  0  0  0  0  0  0  0  0  0  0  0
    2.4577   -2.8944    0.3814 H   0  0  0  0  0  0  0  0  0  0  0  0
    1.3266   -0.4812   -3.0841 H   0  0  0  0  0  0  0  0  0  0  0  0
    2.3924    0.5925   -2.1206 H   0  0  0  0  0  0  0  0  0  0  0  0
    2.5800    3.7998    0.4314 H   0  0  0  0  0  0  0  0  0  0  0  0
    0.9403    3.5083    1.1048 H   0  0  0  0  0  0  0  0  0  0  0  0
    2.7188    2.6309    2.6431 H   0  0  0  0  0  0  0  0  0  0  0  0
    1.7027    1.3250    2.0233 H   0  0  0  0  0  0  0  0  0  0  0  0
    3.3130    1.5867    1.3402 H   0  0  0  0  0  0  0  0  0  0  0  0
   -2.2635    1.4734    2.2036 H   0  0  0  0  0  0  0  0  0  0  0  0
   -4.0237    1.5359    1.8746 H   0  0  0  0  0  0  0  0  0  0  0  0
   -2.8801    2.4858    0.8730 H   0  0  0  0  0  0  0  0  0  0  0  0
   -2.1617   -2.7821    1.5097 H   0  0  0  0  0  0  0  0  0  0  0  0
   -3.0140   -3.5867    0.1585 H   0  0  0  0  0  0  0  0  0  0  0  0
   -3.8149   -2.2682    1.0709 H   0  0  0  0  0  0  0  0  0  0  0  0
  1  2  1  0  0  0  0
  2  3  1  0  0  0  0
  3  4  4  0  0  0  0
  4  5  2  0  0  0  0
  4  6  1  0  0  0  0
  6  7  1  0  0  0  0
  7  8  1  0  0  0  0
  7  9  1  0  0  0  0
  9 10  2  0  0  0  0
  9 11  4  0  0  0  0
 11 12  1  0  0  0  0
 12 13  1  0  0  0  0
  7 14  1  0  0  0  0
 14 15  1  0  0  0  0
 15 16  2  0  0  0  0
 15 17  1  0  0  0  0
 17 18  1  0  0  0  0
 15 19  1  0  0  0  0
 19 20  1  0  0  0  0
  1 21  1  0  0  0  0
  1 22  1  0  0  0  0
  1 23  1  0  0  0  0
  2 24  1  0  0  0  0
  2 25  1  0  0  0  0
  6 26  1  0  0  0  0
  6 27  1  0  0  0  0
 12 28  1  0  0  0  0
 12 29  1  0  0  0  0
 13 30  1  0  0  0  0
 13 31  1  0  0  0  0
 13 32  1  0  0  0  0
 18 33  1  0  0  0  0
 18 34  1  0  0  0  0
 18 35  1  0  0  0  0
 20 36  1  0  0  0  0
 20 37  1  0  0  0  0
 20 38  1  0  0  0  0
M  END
