 xtb: 6.7.1 (edcfbbe)
          04092505213D

 41 40  0     0  0            999 V2000
    2.2734    0.9537   -3.0418 C   0  0  0  0  0  0  0  0  0  0  0  0
    2.0486   -0.4550   -2.5289 C   0  0  0  0  0  0  0  0  0  0  0  0
    2.8211   -0.7110   -1.3460 O   0  0  0  0  0  0  0  0  0  0  0  0
    2.4019   -0.3675    0.1390 P   0  0  0  0  0  0  0  0  0  0  0  0
    2.2948    1.5073    0.7210 S   0  0  0  0  0  0  0  0  0  0  0  0
    3.6011   -1.1739    0.7897 O   0  0  0  0  0  0  0  0  0  0  0  0
    4.1130   -0.8877    2.0998 C   0  0  0  0  0  0  0  0  0  0  0  0
    3.1377   -1.2882    3.1893 C   0  0  0  0  0  0  0  0  0  0  0  0
    0.6661   -1.5545    0.4514 S   0  0  0  0  0  0  0  0  0  0  0  0
   -0.2637   -0.4533    1.5812 C   0  0  0  0  0  0  0  0  0  0  0  0
   -2.0524   -0.6166    1.4087 S   0  0  0  0  0  0  0  0  0  0  0  0
   -2.3975    0.4742   -0.3908 P   0  0  0  0  0  0  0  0  0  0  0  0
   -0.8192    1.2547   -1.2658 S   0  0  0  0  0  0  0  0  0  0  0  0
   -3.5931    1.4464   -0.0326 O   0  0  0  0  0  0  0  0  0  0  0  0
   -3.6638    2.2650    1.1478 C   0  0  0  0  0  0  0  0  0  0  0  0
   -2.5003    3.2303    1.2587 C   0  0  0  0  0  0  0  0  0  0  0  0
   -3.2561   -0.4628   -1.3342 O   0  0  0  0  0  0  0  0  0  0  0  0
   -2.6724   -1.3398   -2.3097 C   0  0  0  0  0  0  0  0  0  0  0  0
   -2.2913   -2.6749   -1.6994 C   0  0  0  0  0  0  0  0  0  0  0  0
    1.7664    1.0747   -3.9935 H   0  0  0  0  0  0  0  0  0  0  0  0
    1.8665    1.6782   -2.3382 H   0  0  0  0  0  0  0  0  0  0  0  0
    3.3361    1.1418   -3.1678 H   0  0  0  0  0  0  0  0  0  0  0  0
    2.4038   -1.2001   -3.2434 H   0  0  0  0  0  0  0  0  0  0  0  0
    0.9887   -0.6231   -2.3183 H   0  0  0  0  0  0  0  0  0  0  0  0
    5.0354   -1.4677    2.1513 H   0  0  0  0  0  0  0  0  0  0  0  0
    4.3418    0.1812    2.1627 H   0  0  0  0  0  0  0  0  0  0  0  0
    2.2745   -0.6241    3.1692 H   0  0  0  0  0  0  0  0  0  0  0  0
    2.8069   -2.3131    3.0402 H   0  0  0  0  0  0  0  0  0  0  0  0
    3.6224   -1.2030    4.1566 H   0  0  0  0  0  0  0  0  0  0  0  0
    0.0535    0.5730    1.3771 H   0  0  0  0  0  0  0  0  0  0  0  0
   -0.0523   -0.7398    2.6084 H   0  0  0  0  0  0  0  0  0  0  0  0
   -4.6096    2.7974    1.0334 H   0  0  0  0  0  0  0  0  0  0  0  0
   -3.7117    1.6102    2.0226 H   0  0  0  0  0  0  0  0  0  0  0  0
   -1.5634    2.6883    1.3866 H   0  0  0  0  0  0  0  0  0  0  0  0
   -2.4223    3.8351    0.3580 H   0  0  0  0  0  0  0  0  0  0  0  0
   -2.6482    3.8803    2.1151 H   0  0  0  0  0  0  0  0  0  0  0  0
   -3.4511   -1.4566   -3.0654 H   0  0  0  0  0  0  0  0  0  0  0  0
   -1.8025   -0.8444   -2.7566 H   0  0  0  0  0  0  0  0  0  0  0  0
   -3.1463   -3.1047   -1.1847 H   0  0  0  0  0  0  0  0  0  0  0  0
   -1.9692   -3.3490   -2.4865 H   0  0  0  0  0  0  0  0  0  0  0  0
   -1.4776   -2.5541   -0.9858 H   0  0  0  0  0  0  0  0  0  0  0  0
  1  2  1  0  0  0  0
  2  3  1  0  0  0  0
  3  4  2  0  0  0  0
  4  5  2  0  0  0  0
  4  6  2  0  0  0  0
  6  7  1  0  0  0  0
  7  8  1  0  0  0  0
  4  9  1  0  0  0  0
  9 10  1  0  0  0  0
 10 11  1  0  0  0  0
 11 12  1  0  0  0  0
 12 13  2  0  0  0  0
 12 14  2  0  0  0  0
 14 15  1  0  0  0  0
 15 16  1  0  0  0  0
 12 17  2  0  0  0  0
 17 18  1  0  0  0  0
 18 19  1  0  0  0  0
  1 20  1  0  0  0  0
  1 21  1  0  0  0  0
  1 22  1  0  0  0  0
  2 23  1  0  0  0  0
  2 24  1  0  0  0  0
  7 25  1  0  0  0  0
  7 26  1  0  0  0  0
  8 27  1  0  0  0  0
  8 28  1  0  0  0  0
  8 29  1  0  0  0  0
 10 30  1  0  0  0  0
 10 31  1  0  0  0  0
 15 32  1  0  0  0  0
 15 33  1  0  0  0  0
 16 34  1  0  0  0  0
 16 35  1  0  0  0  0
 16 36  1  0  0  0  0
 18 37  1  0  0  0  0
 18 38  1  0  0  0  0
 19 39  1  0  0  0  0
 19 40  1  0  0  0  0
 19 41  1  0  0  0  0
M  END
