 xtb: 6.7.1 (edcfbbe)
          04092505203D

 41 40  0     0  0            999 V2000
    5.6984    1.0826   -0.7088 C   0  0  0  0  0  0  0  0  0  0  0  0
    4.3572    0.5249   -1.1398 C   0  0  0  0  0  0  0  0  0  0  0  0
    3.5428    0.3703    0.0395 O   0  0  0  0  0  0  0  0  0  0  0  0
    1.9699    0.1952   -0.0642 P   0  0  0  0  0  0  0  0  0  0  0  0
    1.0811    1.5762   -1.1342 S   0  0  0  0  0  0  0  0  0  0  0  0
    1.5048    0.2232    1.4368 O   0  0  0  0  0  0  0  0  0  0  0  0
    1.7005   -0.8170    2.4308 C   0  0  0  0  0  0  0  0  0  0  0  0
    3.1462   -1.2365    2.5756 C   0  0  0  0  0  0  0  0  0  0  0  0
    1.7552   -1.7851   -0.8054 S   0  0  0  0  0  0  0  0  0  0  0  0
    0.0001   -1.7126   -1.2178 C   0  0  0  0  0  0  0  0  0  0  0  0
   -1.0649   -1.7032    0.2679 S   0  0  0  0  0  0  0  0  0  0  0  0
   -2.1221    0.0940   -0.0009 P   0  0  0  0  0  0  0  0  0  0  0  0
   -2.3897    0.7357   -1.8374 S   0  0  0  0  0  0  0  0  0  0  0  0
   -1.3432    1.0297    1.0131 O   0  0  0  0  0  0  0  0  0  0  0  0
   -1.4813    2.4630    1.0121 C   0  0  0  0  0  0  0  0  0  0  0  0
   -2.8766    2.9049    1.3970 C   0  0  0  0  0  0  0  0  0  0  0  0
   -3.4686   -0.1696    0.8044 O   0  0  0  0  0  0  0  0  0  0  0  0
   -4.6492   -0.7095    0.1863 C   0  0  0  0  0  0  0  0  0  0  0  0
   -4.4717   -2.1567   -0.2258 C   0  0  0  0  0  0  0  0  0  0  0  0
    6.1753    0.4036   -0.0083 H   0  0  0  0  0  0  0  0  0  0  0  0
    6.3308    1.2019   -1.5823 H   0  0  0  0  0  0  0  0  0  0  0  0
    5.5639    2.0481   -0.2292 H   0  0  0  0  0  0  0  0  0  0  0  0
    4.4636   -0.4560   -1.6104 H   0  0  0  0  0  0  0  0  0  0  0  0
    3.8444    1.2006   -1.8329 H   0  0  0  0  0  0  0  0  0  0  0  0
    1.3188   -0.3552    3.3426 H   0  0  0  0  0  0  0  0  0  0  0  0
    1.0687   -1.6679    2.1597 H   0  0  0  0  0  0  0  0  0  0  0  0
    3.7744   -0.3684    2.7569 H   0  0  0  0  0  0  0  0  0  0  0  0
    3.2287   -1.9223    3.4133 H   0  0  0  0  0  0  0  0  0  0  0  0
    3.4880   -1.7387    1.6730 H   0  0  0  0  0  0  0  0  0  0  0  0
   -0.2162   -2.6153   -1.7828 H   0  0  0  0  0  0  0  0  0  0  0  0
   -0.2100   -0.8154   -1.8066 H   0  0  0  0  0  0  0  0  0  0  0  0
   -0.7320    2.7932    1.7336 H   0  0  0  0  0  0  0  0  0  0  0  0
   -1.2113    2.8344    0.0175 H   0  0  0  0  0  0  0  0  0  0  0  0
   -3.1678    2.4484    2.3395 H   0  0  0  0  0  0  0  0  0  0  0  0
   -2.8937    3.9860    1.4944 H   0  0  0  0  0  0  0  0  0  0  0  0
   -3.5858    2.6084    0.6250 H   0  0  0  0  0  0  0  0  0  0  0  0
   -5.4177   -0.5996    0.9526 H   0  0  0  0  0  0  0  0  0  0  0  0
   -4.8961   -0.0917   -0.6832 H   0  0  0  0  0  0  0  0  0  0  0  0
   -4.1078   -2.7468    0.6115 H   0  0  0  0  0  0  0  0  0  0  0  0
   -5.4249   -2.5527   -0.5610 H   0  0  0  0  0  0  0  0  0  0  0  0
   -3.7550   -2.2246   -1.0432 H   0  0  0  0  0  0  0  0  0  0  0  0
  1  2  1  0  0  0  0
  2  3  1  0  0  0  0
  3  4  2  0  0  0  0
  4  5  2  0  0  0  0
  4  6  2  0  0  0  0
  6  7  1  0  0  0  0
  7  8  1  0  0  0  0
  4  9  1  0  0  0  0
  9 10  1  0  0  0  0
 10 11  1  0  0  0  0
 11 12  1  0  0  0  0
 12 13  2  0  0  0  0
 12 14  2  0  0  0  0
 14 15  1  0  0  0  0
 15 16  1  0  0  0  0
 12 17  2  0  0  0  0
 17 18  1  0  0  0  0
 18 19  1  0  0  0  0
  1 20  1  0  0  0  0
  1 21  1  0  0  0  0
  1 22  1  0  0  0  0
  2 23  1  0  0  0  0
  2 24  1  0  0  0  0
  7 25  1  0  0  0  0
  7 26  1  0  0  0  0
  8 27  1  0  0  0  0
  8 28  1  0  0  0  0
  8 29  1  0  0  0  0
 10 30  1  0  0  0  0
 10 31  1  0  0  0  0
 15 32  1  0  0  0  0
 15 33  1  0  0  0  0
 16 34  1  0  0  0  0
 16 35  1  0  0  0  0
 16 36  1  0  0  0  0
 18 37  1  0  0  0  0
 18 38  1  0  0  0  0
 19 39  1  0  0  0  0
 19 40  1  0  0  0  0
 19 41  1  0  0  0  0
M  END
