 xtb: 6.7.1 (edcfbbe)
          04092505213D

 41 40  0     0  0            999 V2000
    3.6994   -0.2748   -2.6103 C   0  0  0  0  0  0  0  0  0  0  0  0
    2.4781    0.5698   -2.3169 C   0  0  0  0  0  0  0  0  0  0  0  0
    1.7900    0.1224   -1.1337 O   0  0  0  0  0  0  0  0  0  0  0  0
    2.4038    0.2684    0.3186 P   0  0  0  0  0  0  0  0  0  0  0  0
    3.5268    1.8370    0.6497 S   0  0  0  0  0  0  0  0  0  0  0  0
    3.1352   -1.1411    0.4946 O   0  0  0  0  0  0  0  0  0  0  0  0
    4.1300   -1.3551    1.5099 C   0  0  0  0  0  0  0  0  0  0  0  0
    3.5305   -1.3591    2.9019 C   0  0  0  0  0  0  0  0  0  0  0  0
    0.6342    0.1187    1.4456 S   0  0  0  0  0  0  0  0  0  0  0  0
   -0.0546   -1.4118    0.6955 C   0  0  0  0  0  0  0  0  0  0  0  0
   -1.8396   -1.4466    0.8904 S   0  0  0  0  0  0  0  0  0  0  0  0
   -2.2842    0.0816   -0.5346 P   0  0  0  0  0  0  0  0  0  0  0  0
   -1.2661    0.0301   -2.2031 S   0  0  0  0  0  0  0  0  0  0  0  0
   -2.0422    1.4670    0.1776 O   0  0  0  0  0  0  0  0  0  0  0  0
   -2.6444    1.8398    1.4414 C   0  0  0  0  0  0  0  0  0  0  0  0
   -3.8461    2.7338    1.2153 C   0  0  0  0  0  0  0  0  0  0  0  0
   -3.8688    0.0188   -0.6184 O   0  0  0  0  0  0  0  0  0  0  0  0
   -4.6415   -1.1791   -0.8289 C   0  0  0  0  0  0  0  0  0  0  0  0
   -4.2052   -1.9515   -2.0557 C   0  0  0  0  0  0  0  0  0  0  0  0
    4.4421   -0.1345   -1.8258 H   0  0  0  0  0  0  0  0  0  0  0  0
    3.4269   -1.3258   -2.6579 H   0  0  0  0  0  0  0  0  0  0  0  0
    4.1256    0.0318   -3.5602 H   0  0  0  0  0  0  0  0  0  0  0  0
    1.7195    0.4861   -3.0979 H   0  0  0  0  0  0  0  0  0  0  0  0
    2.7543    1.6201   -2.1795 H   0  0  0  0  0  0  0  0  0  0  0  0
    4.5666   -2.3211    1.2529 H   0  0  0  0  0  0  0  0  0  0  0  0
    4.8855   -0.5677    1.4237 H   0  0  0  0  0  0  0  0  0  0  0  0
    4.3075   -1.5827    3.6259 H   0  0  0  0  0  0  0  0  0  0  0  0
    3.1110   -0.3786    3.1268 H   0  0  0  0  0  0  0  0  0  0  0  0
    2.7432   -2.1045    2.9792 H   0  0  0  0  0  0  0  0  0  0  0  0
    0.3401   -2.2793    1.2170 H   0  0  0  0  0  0  0  0  0  0  0  0
    0.1918   -1.4214   -0.3660 H   0  0  0  0  0  0  0  0  0  0  0  0
   -2.9209    0.9325    1.9860 H   0  0  0  0  0  0  0  0  0  0  0  0
   -1.8501    2.3596    1.9811 H   0  0  0  0  0  0  0  0  0  0  0  0
   -4.2460    3.0394    2.1770 H   0  0  0  0  0  0  0  0  0  0  0  0
   -3.5535    3.6153    0.6514 H   0  0  0  0  0  0  0  0  0  0  0  0
   -4.6122    2.2009    0.6584 H   0  0  0  0  0  0  0  0  0  0  0  0
   -4.5581   -1.7983    0.0684 H   0  0  0  0  0  0  0  0  0  0  0  0
   -5.6632   -0.8099   -0.9334 H   0  0  0  0  0  0  0  0  0  0  0  0
   -3.1906   -2.3246   -1.9240 H   0  0  0  0  0  0  0  0  0  0  0  0
   -4.8745   -2.7917   -2.2097 H   0  0  0  0  0  0  0  0  0  0  0  0
   -4.2228   -1.3106   -2.9342 H   0  0  0  0  0  0  0  0  0  0  0  0
  1  2  1  0  0  0  0
  2  3  1  0  0  0  0
  3  4  2  0  0  0  0
  4  5  2  0  0  0  0
  4  6  2  0  0  0  0
  6  7  1  0  0  0  0
  7  8  1  0  0  0  0
  4  9  1  0  0  0  0
  9 10  1  0  0  0  0
 10 11  1  0  0  0  0
 11 12  1  0  0  0  0
 12 13  2  0  0  0  0
 12 14  2  0  0  0  0
 14 15  1  0  0  0  0
 15 16  1  0  0  0  0
 12 17  2  0  0  0  0
 17 18  1  0  0  0  0
 18 19  1  0  0  0  0
  1 20  1  0  0  0  0
  1 21  1  0  0  0  0
  1 22  1  0  0  0  0
  2 23  1  0  0  0  0
  2 24  1  0  0  0  0
  7 25  1  0  0  0  0
  7 26  1  0  0  0  0
  8 27  1  0  0  0  0
  8 28  1  0  0  0  0
  8 29  1  0  0  0  0
 10 30  1  0  0  0  0
 10 31  1  0  0  0  0
 15 32  1  0  0  0  0
 15 33  1  0  0  0  0
 16 34  1  0  0  0  0
 16 35  1  0  0  0  0
 16 36  1  0  0  0  0
 18 37  1  0  0  0  0
 18 38  1  0  0  0  0
 19 39  1  0  0  0  0
 19 40  1  0  0  0  0
 19 41  1  0  0  0  0
M  END
