 xtb: 6.7.1 (edcfbbe)
          04092507313D

 38 37  0     0  0            999 V2000
    2.0253   -3.3948   -2.4351 C   0  0  0  0  0  0  0  0  0  0  0  0
    3.2242   -2.8915   -1.6471 C   0  0  0  0  0  0  0  0  0  0  0  0
    2.9358   -1.6163   -1.0444 O   0  0  0  0  0  0  0  0  0  0  0  0
    2.3107   -1.5976    0.1150 C   0  0  0  0  0  0  0  0  0  0  0  0
    2.0289   -2.5771    0.7670 O   0  0  0  0  0  0  0  0  0  0  0  0
    1.9832   -0.1773    0.5447 C   0  0  0  0  0  0  0  0  0  0  0  0
    1.2042    0.5367   -0.5632 C   0  0  0  0  0  0  0  0  0  0  0  0
    1.8592    0.7416   -1.4124 H   0  0  0  0  0  0  0  0  0  0  0  0
    0.5924    1.8212   -0.0432 C   0  0  0  0  0  0  0  0  0  0  0  0
   -0.6134    1.9709    0.0393 O   0  0  0  0  0  0  0  0  0  0  0  0
    1.4872    2.6886    0.3205 O   0  0  0  0  0  0  0  0  0  0  0  0
    1.0448    3.9502    0.8745 C   0  0  0  0  0  0  0  0  0  0  0  0
    0.7270    4.9435   -0.2302 C   0  0  0  0  0  0  0  0  0  0  0  0
   -0.1533   -0.4871   -1.2347 S   0  0  0  0  0  0  0  0  0  0  0  0
   -1.6118   -0.2813    0.2758 P   0  0  0  0  0  0  0  0  0  0  0  0
   -1.2573    0.0497    2.1880 S   0  0  0  0  0  0  0  0  0  0  0  0
   -2.9100    0.4506   -0.3025 O   0  0  0  0  0  0  0  0  0  0  0  0
   -3.3740    1.7511    0.0587 C   0  0  0  0  0  0  0  0  0  0  0  0
   -2.0754   -1.8021    0.0300 O   0  0  0  0  0  0  0  0  0  0  0  0
   -3.1415   -2.3887    0.7790 C   0  0  0  0  0  0  0  0  0  0  0  0
    2.2828   -4.3252   -2.9298 H   0  0  0  0  0  0  0  0  0  0  0  0
    1.1851   -3.5686   -1.7661 H   0  0  0  0  0  0  0  0  0  0  0  0
    1.7276   -2.6583   -3.1763 H   0  0  0  0  0  0  0  0  0  0  0  0
    4.0769   -2.6983   -2.2976 H   0  0  0  0  0  0  0  0  0  0  0  0
    3.4950   -3.5993   -0.8584 H   0  0  0  0  0  0  0  0  0  0  0  0
    2.9082    0.3671    0.7394 H   0  0  0  0  0  0  0  0  0  0  0  0
    1.3969   -0.2337    1.4645 H   0  0  0  0  0  0  0  0  0  0  0  0
    0.1705    3.7656    1.5042 H   0  0  0  0  0  0  0  0  0  0  0  0
    1.8873    4.2820    1.4806 H   0  0  0  0  0  0  0  0  0  0  0  0
    0.4576    5.8956    0.2145 H   0  0  0  0  0  0  0  0  0  0  0  0
    1.5930    5.0802   -0.8716 H   0  0  0  0  0  0  0  0  0  0  0  0
   -0.1070    4.5874   -0.8302 H   0  0  0  0  0  0  0  0  0  0  0  0
   -2.9708    2.4858   -0.6346 H   0  0  0  0  0  0  0  0  0  0  0  0
   -3.0609    1.9922    1.0754 H   0  0  0  0  0  0  0  0  0  0  0  0
   -4.4590    1.7089   -0.0077 H   0  0  0  0  0  0  0  0  0  0  0  0
   -3.0728   -3.4589    0.6013 H   0  0  0  0  0  0  0  0  0  0  0  0
   -4.0991   -2.0011    0.4325 H   0  0  0  0  0  0  0  0  0  0  0  0
   -3.0162   -2.1726    1.8425 H   0  0  0  0  0  0  0  0  0  0  0  0
  1  2  1  0  0  0  0
  2  3  1  0  0  0  0
  3  4  1  0  0  0  0
  4  5  2  0  0  0  0
  4  6  1  0  0  0  0
  6  7  1  0  0  0  0
  7  8  1  0  0  0  0
  7  9  1  0  0  0  0
  9 10  2  0  0  0  0
  9 11  4  0  0  0  0
 11 12  1  0  0  0  0
 12 13  1  0  0  0  0
  7 14  1  0  0  0  0
 14 15  1  0  0  0  0
 15 16  2  0  0  0  0
 15 17  2  0  0  0  0
 17 18  1  0  0  0  0
 15 19  1  0  0  0  0
 19 20  1  0  0  0  0
  1 21  1  0  0  0  0
  1 22  1  0  0  0  0
  1 23  1  0  0  0  0
  2 24  1  0  0  0  0
  2 25  1  0  0  0  0
  6 26  1  0  0  0  0
  6 27  1  0  0  0  0
 12 28  1  0  0  0  0
 12 29  1  0  0  0  0
 13 30  1  0  0  0  0
 13 31  1  0  0  0  0
 13 32  1  0  0  0  0
 18 33  1  0  0  0  0
 18 34  1  0  0  0  0
 18 35  1  0  0  0  0
 20 36  1  0  0  0  0
 20 37  1  0  0  0  0
 20 38  1  0  0  0  0
M  END
