 xtb: 6.7.1 (edcfbbe)
          04092505203D

 41 40  0     0  0            999 V2000
    3.2211    2.3252   -1.6483 C   0  0  0  0  0  0  0  0  0  0  0  0
    3.9709    1.8105   -0.4362 C   0  0  0  0  0  0  0  0  0  0  0  0
    3.6672    0.4317   -0.1771 O   0  0  0  0  0  0  0  0  0  0  0  0
    2.2345   -0.0355    0.3452 P   0  0  0  0  0  0  0  0  0  0  0  0
    1.5184    1.1900    1.7041 S   0  0  0  0  0  0  0  0  0  0  0  0
    2.5313   -1.5218    0.7960 O   0  0  0  0  0  0  0  0  0  0  0  0
    2.9412   -1.8514    2.1447 C   0  0  0  0  0  0  0  0  0  0  0  0
    1.7543   -2.3229    2.9607 C   0  0  0  0  0  0  0  0  0  0  0  0
    1.1864   -0.4500   -1.4518 S   0  0  0  0  0  0  0  0  0  0  0  0
    0.1400   -1.8285   -0.8988 C   0  0  0  0  0  0  0  0  0  0  0  0
   -0.8760   -1.4365    0.5499 S   0  0  0  0  0  0  0  0  0  0  0  0
   -2.0510    0.0472   -0.3782 P   0  0  0  0  0  0  0  0  0  0  0  0
   -2.5512   -0.2525   -2.2531 S   0  0  0  0  0  0  0  0  0  0  0  0
   -1.1499    1.3142   -0.0844 O   0  0  0  0  0  0  0  0  0  0  0  0
   -1.2448    2.5370   -0.8394 C   0  0  0  0  0  0  0  0  0  0  0  0
   -2.5868    3.2129   -0.6577 C   0  0  0  0  0  0  0  0  0  0  0  0
   -3.2665    0.2688    0.6190 O   0  0  0  0  0  0  0  0  0  0  0  0
   -4.4982   -0.4667    0.5091 C   0  0  0  0  0  0  0  0  0  0  0  0
   -4.3218   -1.9302    0.8594 C   0  0  0  0  0  0  0  0  0  0  0  0
    3.5112    3.3513   -1.8493 H   0  0  0  0  0  0  0  0  0  0  0  0
    3.4363    1.7084   -2.5171 H   0  0  0  0  0  0  0  0  0  0  0  0
    2.1478    2.2896   -1.4564 H   0  0  0  0  0  0  0  0  0  0  0  0
    3.7138    2.3949    0.4540 H   0  0  0  0  0  0  0  0  0  0  0  0
    5.0504    1.8222   -0.5909 H   0  0  0  0  0  0  0  0  0  0  0  0
    3.6832   -2.6412    2.0189 H   0  0  0  0  0  0  0  0  0  0  0  0
    3.4077   -0.9758    2.6039 H   0  0  0  0  0  0  0  0  0  0  0  0
    2.0973   -2.6348    3.9418 H   0  0  0  0  0  0  0  0  0  0  0  0
    1.0343   -1.5154    3.0761 H   0  0  0  0  0  0  0  0  0  0  0  0
    1.2614   -3.1558    2.4671 H   0  0  0  0  0  0  0  0  0  0  0  0
    0.7634   -2.6772   -0.6317 H   0  0  0  0  0  0  0  0  0  0  0  0
   -0.5070   -2.0588   -1.7461 H   0  0  0  0  0  0  0  0  0  0  0  0
   -0.4285    3.1455   -0.4451 H   0  0  0  0  0  0  0  0  0  0  0  0
   -1.0629    2.3043   -1.8942 H   0  0  0  0  0  0  0  0  0  0  0  0
   -3.3737    2.5928   -1.0863 H   0  0  0  0  0  0  0  0  0  0  0  0
   -2.7901    3.3608    0.3999 H   0  0  0  0  0  0  0  0  0  0  0  0
   -2.5774    4.1729   -1.1642 H   0  0  0  0  0  0  0  0  0  0  0  0
   -5.1671    0.0382    1.2072 H   0  0  0  0  0  0  0  0  0  0  0  0
   -4.8742   -0.3588   -0.5135 H   0  0  0  0  0  0  0  0  0  0  0  0
   -3.7015   -2.4207    0.1103 H   0  0  0  0  0  0  0  0  0  0  0  0
   -3.8430   -2.0305    1.8303 H   0  0  0  0  0  0  0  0  0  0  0  0
   -5.2934   -2.4131    0.8836 H   0  0  0  0  0  0  0  0  0  0  0  0
  1  2  1  0  0  0  0
  2  3  1  0  0  0  0
  3  4  2  0  0  0  0
  4  5  2  0  0  0  0
  4  6  2  0  0  0  0
  6  7  1  0  0  0  0
  7  8  1  0  0  0  0
  4  9  1  0  0  0  0
  9 10  1  0  0  0  0
 10 11  1  0  0  0  0
 11 12  1  0  0  0  0
 12 13  2  0  0  0  0
 12 14  2  0  0  0  0
 14 15  1  0  0  0  0
 15 16  1  0  0  0  0
 12 17  2  0  0  0  0
 17 18  1  0  0  0  0
 18 19  1  0  0  0  0
  1 20  1  0  0  0  0
  1 21  1  0  0  0  0
  1 22  1  0  0  0  0
  2 23  1  0  0  0  0
  2 24  1  0  0  0  0
  7 25  1  0  0  0  0
  7 26  1  0  0  0  0
  8 27  1  0  0  0  0
  8 28  1  0  0  0  0
  8 29  1  0  0  0  0
 10 30  1  0  0  0  0
 10 31  1  0  0  0  0
 15 32  1  0  0  0  0
 15 33  1  0  0  0  0
 16 34  1  0  0  0  0
 16 35  1  0  0  0  0
 16 36  1  0  0  0  0
 18 37  1  0  0  0  0
 18 38  1  0  0  0  0
 19 39  1  0  0  0  0
 19 40  1  0  0  0  0
 19 41  1  0  0  0  0
M  END
