 xtb: 6.7.1 (edcfbbe)
          04092505213D

 41 40  0     0  0            999 V2000
    3.8595   -1.9465   -2.4052 C   0  0  0  0  0  0  0  0  0  0  0  0
    4.4896   -1.6957   -1.0508 C   0  0  0  0  0  0  0  0  0  0  0  0
    3.5124   -1.3841   -0.0394 O   0  0  0  0  0  0  0  0  0  0  0  0
    2.6225   -0.0675   -0.0740 P   0  0  0  0  0  0  0  0  0  0  0  0
    3.5131    1.5719   -0.6534 S   0  0  0  0  0  0  0  0  0  0  0  0
    2.1243    0.0233    1.4179 O   0  0  0  0  0  0  0  0  0  0  0  0
    1.5366   -1.0984    2.1250 C   0  0  0  0  0  0  0  0  0  0  0  0
    0.6019   -0.5490    3.1823 C   0  0  0  0  0  0  0  0  0  0  0  0
    0.9117   -0.6462   -1.2178 S   0  0  0  0  0  0  0  0  0  0  0  0
    0.2757    1.0284   -1.4558 C   0  0  0  0  0  0  0  0  0  0  0  0
   -0.4018    1.7380    0.0701 S   0  0  0  0  0  0  0  0  0  0  0  0
   -2.1782    0.5906    0.0643 P   0  0  0  0  0  0  0  0  0  0  0  0
   -3.0574    0.4155   -1.6833 S   0  0  0  0  0  0  0  0  0  0  0  0
   -2.8784    1.4132    1.2220 O   0  0  0  0  0  0  0  0  0  0  0  0
   -4.0467    0.9426    1.9303 C   0  0  0  0  0  0  0  0  0  0  0  0
   -5.3174    1.1723    1.1362 C   0  0  0  0  0  0  0  0  0  0  0  0
   -1.8365   -0.8019    0.7601 O   0  0  0  0  0  0  0  0  0  0  0  0
   -1.9838   -2.0835    0.1207 C   0  0  0  0  0  0  0  0  0  0  0  0
   -3.3216   -2.6986    0.4800 C   0  0  0  0  0  0  0  0  0  0  0  0
    4.6200   -2.3033   -3.0923 H   0  0  0  0  0  0  0  0  0  0  0  0
    3.0679   -2.6873   -2.3250 H   0  0  0  0  0  0  0  0  0  0  0  0
    3.4380   -1.0223   -2.7973 H   0  0  0  0  0  0  0  0  0  0  0  0
    5.2027   -0.8678   -1.1054 H   0  0  0  0  0  0  0  0  0  0  0  0
    4.9836   -2.5881   -0.6639 H   0  0  0  0  0  0  0  0  0  0  0  0
    1.0055   -1.7264    1.4035 H   0  0  0  0  0  0  0  0  0  0  0  0
    2.3547   -1.6704    2.5665 H   0  0  0  0  0  0  0  0  0  0  0  0
    0.1870   -1.3722    3.7549 H   0  0  0  0  0  0  0  0  0  0  0  0
    1.1446    0.1179    3.8459 H   0  0  0  0  0  0  0  0  0  0  0  0
   -0.2076    0.0092    2.7171 H   0  0  0  0  0  0  0  0  0  0  0  0
   -0.5082    0.9719   -2.2125 H   0  0  0  0  0  0  0  0  0  0  0  0
    1.0909    1.6787   -1.7745 H   0  0  0  0  0  0  0  0  0  0  0  0
   -3.9136   -0.1164    2.1655 H   0  0  0  0  0  0  0  0  0  0  0  0
   -4.0439    1.5276    2.8517 H   0  0  0  0  0  0  0  0  0  0  0  0
   -6.1719    0.8585    1.7275 H   0  0  0  0  0  0  0  0  0  0  0  0
   -5.4193    2.2255    0.8881 H   0  0  0  0  0  0  0  0  0  0  0  0
   -5.2968    0.6023    0.2092 H   0  0  0  0  0  0  0  0  0  0  0  0
   -1.8927   -1.9601   -0.9622 H   0  0  0  0  0  0  0  0  0  0  0  0
   -1.1521   -2.6844    0.4903 H   0  0  0  0  0  0  0  0  0  0  0  0
   -3.4253   -2.7794    1.5586 H   0  0  0  0  0  0  0  0  0  0  0  0
   -4.1292   -2.0843    0.0862 H   0  0  0  0  0  0  0  0  0  0  0  0
   -3.3875   -3.6880    0.0392 H   0  0  0  0  0  0  0  0  0  0  0  0
  1  2  1  0  0  0  0
  2  3  1  0  0  0  0
  3  4  2  0  0  0  0
  4  5  2  0  0  0  0
  4  6  2  0  0  0  0
  6  7  1  0  0  0  0
  7  8  1  0  0  0  0
  4  9  1  0  0  0  0
  9 10  1  0  0  0  0
 10 11  1  0  0  0  0
 11 12  1  0  0  0  0
 12 13  2  0  0  0  0
 12 14  2  0  0  0  0
 14 15  1  0  0  0  0
 15 16  1  0  0  0  0
 12 17  2  0  0  0  0
 17 18  1  0  0  0  0
 18 19  1  0  0  0  0
  1 20  1  0  0  0  0
  1 21  1  0  0  0  0
  1 22  1  0  0  0  0
  2 23  1  0  0  0  0
  2 24  1  0  0  0  0
  7 25  1  0  0  0  0
  7 26  1  0  0  0  0
  8 27  1  0  0  0  0
  8 28  1  0  0  0  0
  8 29  1  0  0  0  0
 10 30  1  0  0  0  0
 10 31  1  0  0  0  0
 15 32  1  0  0  0  0
 15 33  1  0  0  0  0
 16 34  1  0  0  0  0
 16 35  1  0  0  0  0
 16 36  1  0  0  0  0
 18 37  1  0  0  0  0
 18 38  1  0  0  0  0
 19 39  1  0  0  0  0
 19 40  1  0  0  0  0
 19 41  1  0  0  0  0
M  END
