 xtb: 6.7.1 (edcfbbe)
          04092505213D

 41 40  0     0  0            999 V2000
    4.0143   -1.9994   -2.2248 C   0  0  0  0  0  0  0  0  0  0  0  0
    4.4239   -0.5540   -2.0302 C   0  0  0  0  0  0  0  0  0  0  0  0
    3.9400   -0.0060   -0.7904 O   0  0  0  0  0  0  0  0  0  0  0  0
    2.3923    0.2036   -0.4812 P   0  0  0  0  0  0  0  0  0  0  0  0
    1.3124    0.8452   -1.9788 S   0  0  0  0  0  0  0  0  0  0  0  0
    2.4450    1.2464    0.7007 O   0  0  0  0  0  0  0  0  0  0  0  0
    3.2585    1.0684    1.8915 C   0  0  0  0  0  0  0  0  0  0  0  0
    2.3866    0.7475    3.0886 C   0  0  0  0  0  0  0  0  0  0  0  0
    1.8179   -1.6615    0.3793 S   0  0  0  0  0  0  0  0  0  0  0  0
    0.0390   -1.4501    0.2160 C   0  0  0  0  0  0  0  0  0  0  0  0
   -0.5432   -0.0765    1.2894 S   0  0  0  0  0  0  0  0  0  0  0  0
   -2.3585    0.3330    0.3124 P   0  0  0  0  0  0  0  0  0  0  0  0
   -3.4191    1.8221    1.0127 S   0  0  0  0  0  0  0  0  0  0  0  0
   -3.1240   -1.0678    0.2350 O   0  0  0  0  0  0  0  0  0  0  0  0
   -4.0674   -1.4707    1.2416 C   0  0  0  0  0  0  0  0  0  0  0  0
   -3.3919   -1.7882    2.5608 C   0  0  0  0  0  0  0  0  0  0  0  0
   -1.8267    0.4732   -1.1738 O   0  0  0  0  0  0  0  0  0  0  0  0
   -2.5502    1.1915   -2.1898 C   0  0  0  0  0  0  0  0  0  0  0  0
   -3.8026    0.4532   -2.6120 C   0  0  0  0  0  0  0  0  0  0  0  0
    4.5194   -2.3975   -3.0990 H   0  0  0  0  0  0  0  0  0  0  0  0
    4.2804   -2.5903   -1.3521 H   0  0  0  0  0  0  0  0  0  0  0  0
    2.9387   -2.0642   -2.3800 H   0  0  0  0  0  0  0  0  0  0  0  0
    4.0481    0.0666   -2.8495 H   0  0  0  0  0  0  0  0  0  0  0  0
    5.5069   -0.4484   -1.9516 H   0  0  0  0  0  0  0  0  0  0  0  0
    3.9921    0.2811    1.7077 H   0  0  0  0  0  0  0  0  0  0  0  0
    3.7692    2.0242    2.0188 H   0  0  0  0  0  0  0  0  0  0  0  0
    1.6095    1.4994    3.1970 H   0  0  0  0  0  0  0  0  0  0  0  0
    1.9093   -0.2224    2.9717 H   0  0  0  0  0  0  0  0  0  0  0  0
    3.0040    0.7364    3.9810 H   0  0  0  0  0  0  0  0  0  0  0  0
   -0.4220   -2.3815    0.5326 H   0  0  0  0  0  0  0  0  0  0  0  0
   -0.2026   -1.2029   -0.8169 H   0  0  0  0  0  0  0  0  0  0  0  0
   -4.7974   -0.6655    1.3721 H   0  0  0  0  0  0  0  0  0  0  0  0
   -4.5530   -2.3483    0.8127 H   0  0  0  0  0  0  0  0  0  0  0  0
   -2.6292   -2.5510    2.4282 H   0  0  0  0  0  0  0  0  0  0  0  0
   -2.9256   -0.8891    2.9635 H   0  0  0  0  0  0  0  0  0  0  0  0
   -4.1351   -2.1443    3.2669 H   0  0  0  0  0  0  0  0  0  0  0  0
   -2.7958    2.1859   -1.8032 H   0  0  0  0  0  0  0  0  0  0  0  0
   -1.8274    1.2817   -3.0031 H   0  0  0  0  0  0  0  0  0  0  0  0
   -3.5576   -0.5623   -2.9115 H   0  0  0  0  0  0  0  0  0  0  0  0
   -4.5071    0.4189   -1.7820 H   0  0  0  0  0  0  0  0  0  0  0  0
   -4.2620    0.9760   -3.4450 H   0  0  0  0  0  0  0  0  0  0  0  0
  1  2  1  0  0  0  0
  2  3  1  0  0  0  0
  3  4  2  0  0  0  0
  4  5  2  0  0  0  0
  4  6  2  0  0  0  0
  6  7  1  0  0  0  0
  7  8  1  0  0  0  0
  4  9  1  0  0  0  0
  9 10  1  0  0  0  0
 10 11  1  0  0  0  0
 11 12  1  0  0  0  0
 12 13  2  0  0  0  0
 12 14  2  0  0  0  0
 14 15  1  0  0  0  0
 15 16  1  0  0  0  0
 12 17  2  0  0  0  0
 17 18  1  0  0  0  0
 18 19  1  0  0  0  0
  1 20  1  0  0  0  0
  1 21  1  0  0  0  0
  1 22  1  0  0  0  0
  2 23  1  0  0  0  0
  2 24  1  0  0  0  0
  7 25  1  0  0  0  0
  7 26  1  0  0  0  0
  8 27  1  0  0  0  0
  8 28  1  0  0  0  0
  8 29  1  0  0  0  0
 10 30  1  0  0  0  0
 10 31  1  0  0  0  0
 15 32  1  0  0  0  0
 15 33  1  0  0  0  0
 16 34  1  0  0  0  0
 16 35  1  0  0  0  0
 16 36  1  0  0  0  0
 18 37  1  0  0  0  0
 18 38  1  0  0  0  0
 19 39  1  0  0  0  0
 19 40  1  0  0  0  0
 19 41  1  0  0  0  0
M  END
