 xtb: 6.7.1 (edcfbbe)
          04092505203D

 41 40  0     0  0            999 V2000
    3.5412   -2.2712    1.5983 C   0  0  0  0  0  0  0  0  0  0  0  0
    2.1385   -2.1626    1.0362 C   0  0  0  0  0  0  0  0  0  0  0  0
    1.7504   -0.7867    0.8572 O   0  0  0  0  0  0  0  0  0  0  0  0
    2.3632    0.1114   -0.3180 P   0  0  0  0  0  0  0  0  0  0  0  0
    2.9840   -0.8616   -1.8945 S   0  0  0  0  0  0  0  0  0  0  0  0
    3.5270    0.9716    0.3239 O   0  0  0  0  0  0  0  0  0  0  0  0
    3.4422    1.6309    1.6114 C   0  0  0  0  0  0  0  0  0  0  0  0
    3.0026    3.0734    1.4615 C   0  0  0  0  0  0  0  0  0  0  0  0
    0.7544    1.4574   -0.6210 S   0  0  0  0  0  0  0  0  0  0  0  0
   -0.1640    0.3928   -1.7604 C   0  0  0  0  0  0  0  0  0  0  0  0
   -0.9218   -1.0289   -0.9480 S   0  0  0  0  0  0  0  0  0  0  0  0
   -2.5254    0.0705   -0.0563 P   0  0  0  0  0  0  0  0  0  0  0  0
   -3.3279    1.4498   -1.1871 S   0  0  0  0  0  0  0  0  0  0  0  0
   -1.9710    0.7346    1.2576 O   0  0  0  0  0  0  0  0  0  0  0  0
   -1.3189   -0.0012    2.3236 C   0  0  0  0  0  0  0  0  0  0  0  0
   -0.4743    0.9820    3.1065 C   0  0  0  0  0  0  0  0  0  0  0  0
   -3.4501   -1.0781    0.5358 O   0  0  0  0  0  0  0  0  0  0  0  0
   -3.9349   -2.2214   -0.1935 C   0  0  0  0  0  0  0  0  0  0  0  0
   -4.6595   -1.8404   -1.4671 C   0  0  0  0  0  0  0  0  0  0  0  0
    4.2520   -1.8373    0.8950 H   0  0  0  0  0  0  0  0  0  0  0  0
    3.6148   -1.7456    2.5467 H   0  0  0  0  0  0  0  0  0  0  0  0
    3.7891   -3.3173    1.7470 H   0  0  0  0  0  0  0  0  0  0  0  0
    1.3927   -2.5662    1.7224 H   0  0  0  0  0  0  0  0  0  0  0  0
    2.0672   -2.6727    0.0707 H   0  0  0  0  0  0  0  0  0  0  0  0
    2.7583    1.0705    2.2529 H   0  0  0  0  0  0  0  0  0  0  0  0
    4.4575    1.5692    2.0069 H   0  0  0  0  0  0  0  0  0  0  0  0
    3.6707    3.5986    0.7846 H   0  0  0  0  0  0  0  0  0  0  0  0
    1.9917    3.1305    1.0614 H   0  0  0  0  0  0  0  0  0  0  0  0
    3.0271    3.5548    2.4342 H   0  0  0  0  0  0  0  0  0  0  0  0
    0.5192    0.0036   -2.5160 H   0  0  0  0  0  0  0  0  0  0  0  0
   -0.9474    1.0083   -2.2059 H   0  0  0  0  0  0  0  0  0  0  0  0
   -2.0973   -0.4524    2.9414 H   0  0  0  0  0  0  0  0  0  0  0  0
   -0.7044   -0.7898    1.8789 H   0  0  0  0  0  0  0  0  0  0  0  0
   -1.0996    1.7775    3.5008 H   0  0  0  0  0  0  0  0  0  0  0  0
    0.0126    0.4635    3.9262 H   0  0  0  0  0  0  0  0  0  0  0  0
    0.2766    1.4228    2.4558 H   0  0  0  0  0  0  0  0  0  0  0  0
   -3.0829   -2.8708   -0.4130 H   0  0  0  0  0  0  0  0  0  0  0  0
   -4.6043   -2.7117    0.5154 H   0  0  0  0  0  0  0  0  0  0  0  0
   -5.0745   -2.7314   -1.9272 H   0  0  0  0  0  0  0  0  0  0  0  0
   -5.4615   -1.1381   -1.2522 H   0  0  0  0  0  0  0  0  0  0  0  0
   -3.9698   -1.3687   -2.1659 H   0  0  0  0  0  0  0  0  0  0  0  0
  1  2  1  0  0  0  0
  2  3  1  0  0  0  0
  3  4  1  0  0  0  0
  4  5  2  0  0  0  0
  4  6  2  0  0  0  0
  6  7  1  0  0  0  0
  7  8  1  0  0  0  0
  4  9  1  0  0  0  0
  9 10  1  0  0  0  0
 10 11  1  0  0  0  0
 11 12  1  0  0  0  0
 12 13  2  0  0  0  0
 12 14  2  0  0  0  0
 14 15  1  0  0  0  0
 15 16  1  0  0  0  0
 12 17  2  0  0  0  0
 17 18  1  0  0  0  0
 18 19  1  0  0  0  0
  1 20  1  0  0  0  0
  1 21  1  0  0  0  0
  1 22  1  0  0  0  0
  2 23  1  0  0  0  0
  2 24  1  0  0  0  0
  7 25  1  0  0  0  0
  7 26  1  0  0  0  0
  8 27  1  0  0  0  0
  8 28  1  0  0  0  0
  8 29  1  0  0  0  0
 10 30  1  0  0  0  0
 10 31  1  0  0  0  0
 15 32  1  0  0  0  0
 15 33  1  0  0  0  0
 16 34  1  0  0  0  0
 16 35  1  0  0  0  0
 16 36  1  0  0  0  0
 18 37  1  0  0  0  0
 18 38  1  0  0  0  0
 19 39  1  0  0  0  0
 19 40  1  0  0  0  0
 19 41  1  0  0  0  0
M  END
