 xtb: 6.7.1 (edcfbbe)
          04092507313D

 38 37  0     0  0            999 V2000
    2.8984   -3.9777    0.2943 C   0  0  0  0  0  0  0  0  0  0  0  0
    2.5615   -2.5507    0.6774 C   0  0  0  0  0  0  0  0  0  0  0  0
    2.1777   -1.8481   -0.5206 O   0  0  0  0  0  0  0  0  0  0  0  0
    2.0590   -0.5435   -0.4721 C   0  0  0  0  0  0  0  0  0  0  0  0
    2.2341    0.1349    0.5217 O   0  0  0  0  0  0  0  0  0  0  0  0
    1.7044    0.0526   -1.8223 C   0  0  0  0  0  0  0  0  0  0  0  0
    0.4622    0.9433   -1.7137 C   0  0  0  0  0  0  0  0  0  0  0  0
    0.4140    1.6196   -2.5698 H   0  0  0  0  0  0  0  0  0  0  0  0
    0.4864    1.7551   -0.4330 C   0  0  0  0  0  0  0  0  0  0  0  0
   -0.3124    1.5712    0.4699 O   0  0  0  0  0  0  0  0  0  0  0  0
    1.4039    2.6718   -0.4456 O   0  0  0  0  0  0  0  0  0  0  0  0
    1.5986    3.4557    0.7525 C   0  0  0  0  0  0  0  0  0  0  0  0
    2.5585    4.5797    0.4206 C   0  0  0  0  0  0  0  0  0  0  0  0
   -1.0904   -0.0146   -1.7735 S   0  0  0  0  0  0  0  0  0  0  0  0
   -1.7225   -0.3636    0.2030 P   0  0  0  0  0  0  0  0  0  0  0  0
   -0.6314   -1.0967    1.6732 S   0  0  0  0  0  0  0  0  0  0  0  0
   -2.7511    0.8162    0.5098 O   0  0  0  0  0  0  0  0  0  0  0  0
   -3.6112    0.7421    1.6556 C   0  0  0  0  0  0  0  0  0  0  0  0
   -2.8275   -1.4839   -0.1889 O   0  0  0  0  0  0  0  0  0  0  0  0
   -2.4899   -2.8535   -0.4056 C   0  0  0  0  0  0  0  0  0  0  0  0
    2.0344   -4.4521   -0.1606 H   0  0  0  0  0  0  0  0  0  0  0  0
    3.7224   -3.9903   -0.4129 H   0  0  0  0  0  0  0  0  0  0  0  0
    3.1800   -4.5276    1.1858 H   0  0  0  0  0  0  0  0  0  0  0  0
    3.4148   -2.0294    1.1223 H   0  0  0  0  0  0  0  0  0  0  0  0
    1.7253   -2.5004    1.3831 H   0  0  0  0  0  0  0  0  0  0  0  0
    1.5354   -0.7431   -2.5460 H   0  0  0  0  0  0  0  0  0  0  0  0
    2.5487    0.6703   -2.1354 H   0  0  0  0  0  0  0  0  0  0  0  0
    0.6242    3.8261    1.0852 H   0  0  0  0  0  0  0  0  0  0  0  0
    1.9972    2.7831    1.5184 H   0  0  0  0  0  0  0  0  0  0  0  0
    3.5047    4.1705    0.0810 H   0  0  0  0  0  0  0  0  0  0  0  0
    2.1430    5.2084   -0.3611 H   0  0  0  0  0  0  0  0  0  0  0  0
    2.7262    5.1774    1.3101 H   0  0  0  0  0  0  0  0  0  0  0  0
   -4.0494    1.7322    1.7517 H   0  0  0  0  0  0  0  0  0  0  0  0
   -3.0321    0.4919    2.5466 H   0  0  0  0  0  0  0  0  0  0  0  0
   -4.3815   -0.0111    1.4910 H   0  0  0  0  0  0  0  0  0  0  0  0
   -1.7955   -3.1906    0.3671 H   0  0  0  0  0  0  0  0  0  0  0  0
   -2.0399   -2.9739   -1.3908 H   0  0  0  0  0  0  0  0  0  0  0  0
   -3.4254   -3.4035   -0.3417 H   0  0  0  0  0  0  0  0  0  0  0  0
  1  2  1  0  0  0  0
  2  3  1  0  0  0  0
  3  4  4  0  0  0  0
  4  5  2  0  0  0  0
  4  6  1  0  0  0  0
  6  7  1  0  0  0  0
  7  8  1  0  0  0  0
  7  9  1  0  0  0  0
  9 10  2  0  0  0  0
  9 11  4  0  0  0  0
 11 12  1  0  0  0  0
 12 13  1  0  0  0  0
  7 14  1  0  0  0  0
 14 15  1  0  0  0  0
 15 16  2  0  0  0  0
 15 17  1  0  0  0  0
 17 18  1  0  0  0  0
 15 19  1  0  0  0  0
 19 20  1  0  0  0  0
  1 21  1  0  0  0  0
  1 22  1  0  0  0  0
  1 23  1  0  0  0  0
  2 24  1  0  0  0  0
  2 25  1  0  0  0  0
  6 26  1  0  0  0  0
  6 27  1  0  0  0  0
 12 28  1  0  0  0  0
 12 29  1  0  0  0  0
 13 30  1  0  0  0  0
 13 31  1  0  0  0  0
 13 32  1  0  0  0  0
 18 33  1  0  0  0  0
 18 34  1  0  0  0  0
 18 35  1  0  0  0  0
 20 36  1  0  0  0  0
 20 37  1  0  0  0  0
 20 38  1  0  0  0  0
M  END
