 xtb: 6.7.1 (edcfbbe)
          04092505203D

 41 40  0     0  0            999 V2000
    5.8368   -0.4945   -0.5159 C   0  0  0  0  0  0  0  0  0  0  0  0
    4.3773   -0.8332   -0.7421 C   0  0  0  0  0  0  0  0  0  0  0  0
    3.5851    0.2584   -0.2379 O   0  0  0  0  0  0  0  0  0  0  0  0
    2.0572    0.4289   -0.6512 P   0  0  0  0  0  0  0  0  0  0  0  0
    1.7706    0.3878   -2.5866 S   0  0  0  0  0  0  0  0  0  0  0  0
    1.7137    1.8160   -0.0001 O   0  0  0  0  0  0  0  0  0  0  0  0
    1.4506    2.0923    1.3965 C   0  0  0  0  0  0  0  0  0  0  0  0
    2.5219    1.5552    2.3195 C   0  0  0  0  0  0  0  0  0  0  0  0
    1.1187   -1.1337    0.4537 S   0  0  0  0  0  0  0  0  0  0  0  0
   -0.0020   -1.8228   -0.8045 C   0  0  0  0  0  0  0  0  0  0  0  0
   -1.6969   -2.0032   -0.2085 S   0  0  0  0  0  0  0  0  0  0  0  0
   -2.0701    0.0397    0.2572 P   0  0  0  0  0  0  0  0  0  0  0  0
   -1.3524    1.3766   -0.9840 S   0  0  0  0  0  0  0  0  0  0  0  0
   -1.5037    0.2426    1.7161 O   0  0  0  0  0  0  0  0  0  0  0  0
   -1.8597   -0.5946    2.8479 C   0  0  0  0  0  0  0  0  0  0  0  0
   -2.9751    0.0369    3.6543 C   0  0  0  0  0  0  0  0  0  0  0  0
   -3.6414    0.0869    0.4858 O   0  0  0  0  0  0  0  0  0  0  0  0
   -4.5809    0.3101   -0.5805 C   0  0  0  0  0  0  0  0  0  0  0  0
   -4.5901   -0.8197   -1.5895 C   0  0  0  0  0  0  0  0  0  0  0  0
    6.0922    0.4200   -1.0439 H   0  0  0  0  0  0  0  0  0  0  0  0
    6.0263   -0.3543    0.5441 H   0  0  0  0  0  0  0  0  0  0  0  0
    6.4522   -1.3069   -0.8881 H   0  0  0  0  0  0  0  0  0  0  0  0
    4.0895   -1.7401   -0.2028 H   0  0  0  0  0  0  0  0  0  0  0  0
    4.1550   -0.9626   -1.8070 H   0  0  0  0  0  0  0  0  0  0  0  0
    1.3990    3.1821    1.4235 H   0  0  0  0  0  0  0  0  0  0  0  0
    0.4680    1.6776    1.6405 H   0  0  0  0  0  0  0  0  0  0  0  0
    3.4968    1.9288    2.0176 H   0  0  0  0  0  0  0  0  0  0  0  0
    2.3079    1.8799    3.3331 H   0  0  0  0  0  0  0  0  0  0  0  0
    2.5358    0.4665    2.2905 H   0  0  0  0  0  0  0  0  0  0  0  0
    0.3340   -2.8253   -1.0575 H   0  0  0  0  0  0  0  0  0  0  0  0
    0.0260   -1.1666   -1.6796 H   0  0  0  0  0  0  0  0  0  0  0  0
   -2.1462   -1.5831    2.4795 H   0  0  0  0  0  0  0  0  0  0  0  0
   -0.9377   -0.6710    3.4271 H   0  0  0  0  0  0  0  0  0  0  0  0
   -2.6904    1.0372    3.9687 H   0  0  0  0  0  0  0  0  0  0  0  0
   -3.8816    0.1011    3.0588 H   0  0  0  0  0  0  0  0  0  0  0  0
   -3.1650   -0.5740    4.5313 H   0  0  0  0  0  0  0  0  0  0  0  0
   -5.5393    0.3982   -0.0669 H   0  0  0  0  0  0  0  0  0  0  0  0
   -4.3304    1.2581   -1.0663 H   0  0  0  0  0  0  0  0  0  0  0  0
   -4.7133   -1.7761   -1.0876 H   0  0  0  0  0  0  0  0  0  0  0  0
   -5.4080   -0.6693   -2.2870 H   0  0  0  0  0  0  0  0  0  0  0  0
   -3.6538   -0.8313   -2.1459 H   0  0  0  0  0  0  0  0  0  0  0  0
  1  2  1  0  0  0  0
  2  3  1  0  0  0  0
  3  4  2  0  0  0  0
  4  5  2  0  0  0  0
  4  6  2  0  0  0  0
  6  7  1  0  0  0  0
  7  8  1  0  0  0  0
  4  9  1  0  0  0  0
  9 10  1  0  0  0  0
 10 11  1  0  0  0  0
 11 12  1  0  0  0  0
 12 13  2  0  0  0  0
 12 14  2  0  0  0  0
 14 15  1  0  0  0  0
 15 16  1  0  0  0  0
 12 17  2  0  0  0  0
 17 18  1  0  0  0  0
 18 19  1  0  0  0  0
  1 20  1  0  0  0  0
  1 21  1  0  0  0  0
  1 22  1  0  0  0  0
  2 23  1  0  0  0  0
  2 24  1  0  0  0  0
  7 25  1  0  0  0  0
  7 26  1  0  0  0  0
  8 27  1  0  0  0  0
  8 28  1  0  0  0  0
  8 29  1  0  0  0  0
 10 30  1  0  0  0  0
 10 31  1  0  0  0  0
 15 32  1  0  0  0  0
 15 33  1  0  0  0  0
 16 34  1  0  0  0  0
 16 35  1  0  0  0  0
 16 36  1  0  0  0  0
 18 37  1  0  0  0  0
 18 38  1  0  0  0  0
 19 39  1  0  0  0  0
 19 40  1  0  0  0  0
 19 41  1  0  0  0  0
M  END
