 xtb: 6.7.1 (edcfbbe)
          04032520063D

 19 19  0     0  0            999 V2000
    2.3995   -0.0000    0.0155 C   0  0  0  0  0  0  0  0  0  0  0  0
    0.9863    0.0000   -0.2954 N   0  0  0  0  0  0  0  0  0  0  0  0
    0.3227    1.1915    0.2073 C   0  0  0  0  0  0  0  0  0  0  0  0
   -1.1465    1.1865   -0.2283 C   0  0  0  0  0  0  0  0  0  0  0  0
   -1.8568    0.0001    0.2175 N   0  0  0  0  0  0  0  0  0  0  0  0
   -1.1467   -1.1865   -0.2282 C   0  0  0  0  0  0  0  0  0  0  0  0
    0.3227   -1.1915    0.2072 C   0  0  0  0  0  0  0  0  0  0  0  0
    2.8579    0.8858   -0.4203 H   0  0  0  0  0  0  0  0  0  0  0  0
    2.8580   -0.8854   -0.4214 H   0  0  0  0  0  0  0  0  0  0  0  0
    2.5954   -0.0007    1.1006 H   0  0  0  0  0  0  0  0  0  0  0  0
    0.3799    1.2452    1.3135 H   0  0  0  0  0  0  0  0  0  0  0  0
    0.8283    2.0680   -0.2029 H   0  0  0  0  0  0  0  0  0  0  0  0
   -1.6550    2.0698    0.1616 H   0  0  0  0  0  0  0  0  0  0  0  0
   -1.1921    1.2034   -1.3199 H   0  0  0  0  0  0  0  0  0  0  0  0
   -1.8943    0.0001    1.2344 H   0  0  0  0  0  0  0  0  0  0  0  0
   -1.6551   -2.0697    0.1621 H   0  0  0  0  0  0  0  0  0  0  0  0
   -1.1925   -1.2038   -1.3197 H   0  0  0  0  0  0  0  0  0  0  0  0
    0.3801   -1.2454    1.3133 H   0  0  0  0  0  0  0  0  0  0  0  0
    0.8282   -2.0680   -0.2033 H   0  0  0  0  0  0  0  0  0  0  0  0
  1  2  1  0  0  0  0
  2  3  1  0  0  0  0
  3  4  1  0  0  0  0
  4  5  1  0  0  0  0
  5  6  1  0  0  0  0
  2  7  1  0  0  0  0
  6  7  1  0  0  0  0
  1  8  1  0  0  0  0
  1  9  1  0  0  0  0
  1 10  1  0  0  0  0
  3 11  1  0  0  0  0
  3 12  1  0  0  0  0
  4 13  1  0  0  0  0
  4 14  1  0  0  0  0
  5 15  1  0  0  0  0
  6 16  1  0  0  0  0
  6 17  1  0  0  0  0
  7 18  1  0  0  0  0
  7 19  1  0  0  0  0
M  END
