 xtb: 6.7.1 (edcfbbe)
          04092505213D

 41 40  0     0  0            999 V2000
    1.7348    2.7038    0.7334 C   0  0  0  0  0  0  0  0  0  0  0  0
    2.6767    1.8907    1.5975 C   0  0  0  0  0  0  0  0  0  0  0  0
    3.0814    0.6728    0.9498 O   0  0  0  0  0  0  0  0  0  0  0  0
    2.0755   -0.5328    0.7066 P   0  0  0  0  0  0  0  0  0  0  0  0
    0.8144   -0.8751    2.1741 S   0  0  0  0  0  0  0  0  0  0  0  0
    3.0472   -1.7397    0.3700 O   0  0  0  0  0  0  0  0  0  0  0  0
    3.6007   -2.6000    1.3867 C   0  0  0  0  0  0  0  0  0  0  0  0
    4.6032   -1.8741    2.2590 C   0  0  0  0  0  0  0  0  0  0  0  0
    1.3164   -0.2086   -1.2292 S   0  0  0  0  0  0  0  0  0  0  0  0
    0.0646   -1.5368   -1.1955 C   0  0  0  0  0  0  0  0  0  0  0  0
   -1.4445   -1.1174   -2.1101 S   0  0  0  0  0  0  0  0  0  0  0  0
   -2.2884    0.3639   -0.8738 P   0  0  0  0  0  0  0  0  0  0  0  0
   -4.1064    0.9402   -1.3189 S   0  0  0  0  0  0  0  0  0  0  0  0
   -1.2496    1.5760   -0.7628 O   0  0  0  0  0  0  0  0  0  0  0  0
   -1.2928    2.6840   -1.6776 C   0  0  0  0  0  0  0  0  0  0  0  0
   -0.8550    2.2797   -3.0707 C   0  0  0  0  0  0  0  0  0  0  0  0
   -2.0950   -0.3408    0.5318 O   0  0  0  0  0  0  0  0  0  0  0  0
   -2.6638    0.2287    1.7327 C   0  0  0  0  0  0  0  0  0  0  0  0
   -2.9296   -0.8979    2.7083 C   0  0  0  0  0  0  0  0  0  0  0  0
    2.1793    2.8801   -0.2431 H   0  0  0  0  0  0  0  0  0  0  0  0
    0.7962    2.1666    0.5993 H   0  0  0  0  0  0  0  0  0  0  0  0
    1.5319    3.6544    1.2170 H   0  0  0  0  0  0  0  0  0  0  0  0
    2.2021    1.6360    2.5512 H   0  0  0  0  0  0  0  0  0  0  0  0
    3.6144    2.4178    1.7787 H   0  0  0  0  0  0  0  0  0  0  0  0
    2.7780   -2.9962    1.9908 H   0  0  0  0  0  0  0  0  0  0  0  0
    4.0670   -3.4063    0.8192 H   0  0  0  0  0  0  0  0  0  0  0  0
    5.0798   -2.5846    2.9271 H   0  0  0  0  0  0  0  0  0  0  0  0
    5.3580   -1.3935    1.6422 H   0  0  0  0  0  0  0  0  0  0  0  0
    4.0981   -1.1141    2.8537 H   0  0  0  0  0  0  0  0  0  0  0  0
   -0.1920   -1.7519   -0.1575 H   0  0  0  0  0  0  0  0  0  0  0  0
    0.4639   -2.4134   -1.6998 H   0  0  0  0  0  0  0  0  0  0  0  0
   -2.3151    3.0755   -1.6929 H   0  0  0  0  0  0  0  0  0  0  0  0
   -0.6173    3.4193   -1.2386 H   0  0  0  0  0  0  0  0  0  0  0  0
   -0.8108    3.1601   -3.7033 H   0  0  0  0  0  0  0  0  0  0  0  0
    0.1236    1.8060   -3.0374 H   0  0  0  0  0  0  0  0  0  0  0  0
   -1.5718    1.5760   -3.4939 H   0  0  0  0  0  0  0  0  0  0  0  0
   -1.9403    0.9396    2.1382 H   0  0  0  0  0  0  0  0  0  0  0  0
   -3.5851    0.7570    1.4644 H   0  0  0  0  0  0  0  0  0  0  0  0
   -3.3602   -0.4874    3.6156 H   0  0  0  0  0  0  0  0  0  0  0  0
   -3.6192   -1.6158    2.2733 H   0  0  0  0  0  0  0  0  0  0  0  0
   -1.9962   -1.4006    2.9500 H   0  0  0  0  0  0  0  0  0  0  0  0
  1  2  1  0  0  0  0
  2  3  1  0  0  0  0
  3  4  2  0  0  0  0
  4  5  2  0  0  0  0
  4  6  2  0  0  0  0
  6  7  1  0  0  0  0
  7  8  1  0  0  0  0
  4  9  1  0  0  0  0
  9 10  1  0  0  0  0
 10 11  1  0  0  0  0
 11 12  1  0  0  0  0
 12 13  2  0  0  0  0
 12 14  1  0  0  0  0
 14 15  1  0  0  0  0
 15 16  1  0  0  0  0
 12 17  2  0  0  0  0
 17 18  1  0  0  0  0
 18 19  1  0  0  0  0
  1 20  1  0  0  0  0
  1 21  1  0  0  0  0
  1 22  1  0  0  0  0
  2 23  1  0  0  0  0
  2 24  1  0  0  0  0
  7 25  1  0  0  0  0
  7 26  1  0  0  0  0
  8 27  1  0  0  0  0
  8 28  1  0  0  0  0
  8 29  1  0  0  0  0
 10 30  1  0  0  0  0
 10 31  1  0  0  0  0
 15 32  1  0  0  0  0
 15 33  1  0  0  0  0
 16 34  1  0  0  0  0
 16 35  1  0  0  0  0
 16 36  1  0  0  0  0
 18 37  1  0  0  0  0
 18 38  1  0  0  0  0
 19 39  1  0  0  0  0
 19 40  1  0  0  0  0
 19 41  1  0  0  0  0
M  END
