 xtb: 6.7.1 (edcfbbe)
          04092507313D

 38 37  0     0  0            999 V2000
    2.5131   -3.7455    0.5795 C   0  0  0  0  0  0  0  0  0  0  0  0
    3.1920   -2.4170    0.8706 C   0  0  0  0  0  0  0  0  0  0  0  0
    3.0712   -1.5156   -0.2489 O   0  0  0  0  0  0  0  0  0  0  0  0
    1.9813   -0.8039   -0.3780 C   0  0  0  0  0  0  0  0  0  0  0  0
    1.0536   -0.8247    0.4164 O   0  0  0  0  0  0  0  0  0  0  0  0
    1.9905    0.0577   -1.6132 C   0  0  0  0  0  0  0  0  0  0  0  0
    0.7788    0.9728   -1.6379 C   0  0  0  0  0  0  0  0  0  0  0  0
    0.7540    1.5655   -2.5558 H   0  0  0  0  0  0  0  0  0  0  0  0
    0.7185    1.9196   -0.4500 C   0  0  0  0  0  0  0  0  0  0  0  0
    1.5717    1.9657    0.4085 O   0  0  0  0  0  0  0  0  0  0  0  0
   -0.3485    2.6838   -0.5085 O   0  0  0  0  0  0  0  0  0  0  0  0
   -0.5523    3.6692    0.5211 C   0  0  0  0  0  0  0  0  0  0  0  0
    0.1133    4.9827    0.1439 C   0  0  0  0  0  0  0  0  0  0  0  0
   -0.7961    0.0369   -1.7468 S   0  0  0  0  0  0  0  0  0  0  0  0
   -1.3611   -0.5909    0.2120 P   0  0  0  0  0  0  0  0  0  0  0  0
   -1.2430   -2.4839    0.7367 S   0  0  0  0  0  0  0  0  0  0  0  0
   -1.0296    0.5454    1.2765 O   0  0  0  0  0  0  0  0  0  0  0  0
   -0.3493    0.3050    2.5084 C   0  0  0  0  0  0  0  0  0  0  0  0
   -2.9209   -0.1889    0.1001 O   0  0  0  0  0  0  0  0  0  0  0  0
   -3.8060   -0.8942   -0.7684 C   0  0  0  0  0  0  0  0  0  0  0  0
    1.4368   -3.6117    0.4828 H   0  0  0  0  0  0  0  0  0  0  0  0
    2.9016   -4.1718   -0.3410 H   0  0  0  0  0  0  0  0  0  0  0  0
    2.7022   -4.4303    1.3994 H   0  0  0  0  0  0  0  0  0  0  0  0
    4.2676   -2.5381    0.9982 H   0  0  0  0  0  0  0  0  0  0  0  0
    2.7527   -1.9431    1.7527 H   0  0  0  0  0  0  0  0  0  0  0  0
    1.9898   -0.5895   -2.4919 H   0  0  0  0  0  0  0  0  0  0  0  0
    2.9121    0.6427   -1.6131 H   0  0  0  0  0  0  0  0  0  0  0  0
   -1.6358    3.7706    0.5888 H   0  0  0  0  0  0  0  0  0  0  0  0
   -0.1516    3.2805    1.4611 H   0  0  0  0  0  0  0  0  0  0  0  0
   -0.2536    5.3238   -0.8200 H   0  0  0  0  0  0  0  0  0  0  0  0
   -0.1162    5.7274    0.8988 H   0  0  0  0  0  0  0  0  0  0  0  0
    1.1920    4.8546    0.0904 H   0  0  0  0  0  0  0  0  0  0  0  0
    0.6519    0.7331    2.4432 H   0  0  0  0  0  0  0  0  0  0  0  0
   -0.2796   -0.7667    2.7033 H   0  0  0  0  0  0  0  0  0  0  0  0
   -0.9323    0.7942    3.2860 H   0  0  0  0  0  0  0  0  0  0  0  0
   -3.5713   -0.6690   -1.8099 H   0  0  0  0  0  0  0  0  0  0  0  0
   -4.8044   -0.5459   -0.5165 H   0  0  0  0  0  0  0  0  0  0  0  0
   -3.7223   -1.9694   -0.5954 H   0  0  0  0  0  0  0  0  0  0  0  0
  1  2  1  0  0  0  0
  2  3  1  0  0  0  0
  3  4  4  0  0  0  0
  4  5  2  0  0  0  0
  4  6  1  0  0  0  0
  6  7  1  0  0  0  0
  7  8  1  0  0  0  0
  7  9  1  0  0  0  0
  9 10  2  0  0  0  0
  9 11  1  0  0  0  0
 11 12  1  0  0  0  0
 12 13  1  0  0  0  0
  7 14  1  0  0  0  0
 14 15  1  0  0  0  0
 15 16  2  0  0  0  0
 15 17  1  0  0  0  0
 17 18  1  0  0  0  0
 15 19  1  0  0  0  0
 19 20  1  0  0  0  0
  1 21  1  0  0  0  0
  1 22  1  0  0  0  0
  1 23  1  0  0  0  0
  2 24  1  0  0  0  0
  2 25  1  0  0  0  0
  6 26  1  0  0  0  0
  6 27  1  0  0  0  0
 12 28  1  0  0  0  0
 12 29  1  0  0  0  0
 13 30  1  0  0  0  0
 13 31  1  0  0  0  0
 13 32  1  0  0  0  0
 18 33  1  0  0  0  0
 18 34  1  0  0  0  0
 18 35  1  0  0  0  0
 20 36  1  0  0  0  0
 20 37  1  0  0  0  0
 20 38  1  0  0  0  0
M  END
