 xtb: 6.7.1 (edcfbbe)
          04092505203D

 41 40  0     0  0            999 V2000
    4.3602    0.6847   -2.1948 C   0  0  0  0  0  0  0  0  0  0  0  0
    4.6634    0.1471   -0.8123 C   0  0  0  0  0  0  0  0  0  0  0  0
    3.7036    0.5739    0.1728 O   0  0  0  0  0  0  0  0  0  0  0  0
    2.1340    0.3590    0.0801 P   0  0  0  0  0  0  0  0  0  0  0  0
    1.0873    1.5876   -1.0403 S   0  0  0  0  0  0  0  0  0  0  0  0
    1.7048    0.5654    1.5837 O   0  0  0  0  0  0  0  0  0  0  0  0
    2.3782    0.0364    2.7564 C   0  0  0  0  0  0  0  0  0  0  0  0
    1.9411   -1.3811    3.0687 C   0  0  0  0  0  0  0  0  0  0  0  0
    1.9650   -1.6979   -0.4438 S   0  0  0  0  0  0  0  0  0  0  0  0
    0.2134   -1.7061   -0.8660 C   0  0  0  0  0  0  0  0  0  0  0  0
   -0.8455   -1.1921    0.5237 S   0  0  0  0  0  0  0  0  0  0  0  0
   -2.1123    0.2222   -0.4367 P   0  0  0  0  0  0  0  0  0  0  0  0
   -2.0285    0.2522   -2.3919 S   0  0  0  0  0  0  0  0  0  0  0  0
   -1.9153    1.6358    0.2193 O   0  0  0  0  0  0  0  0  0  0  0  0
   -1.5351    1.9189    1.5870 C   0  0  0  0  0  0  0  0  0  0  0  0
   -2.4159    1.2241    2.6019 C   0  0  0  0  0  0  0  0  0  0  0  0
   -3.5487   -0.1805    0.1221 O   0  0  0  0  0  0  0  0  0  0  0  0
   -4.2228   -1.3675   -0.3358 C   0  0  0  0  0  0  0  0  0  0  0  0
   -5.6901   -1.2392    0.0204 C   0  0  0  0  0  0  0  0  0  0  0  0
    5.1515    0.3942   -2.8782 H   0  0  0  0  0  0  0  0  0  0  0  0
    3.4143    0.2832   -2.5564 H   0  0  0  0  0  0  0  0  0  0  0  0
    4.2825    1.7694   -2.1724 H   0  0  0  0  0  0  0  0  0  0  0  0
    5.6098    0.5365   -0.4327 H   0  0  0  0  0  0  0  0  0  0  0  0
    4.6837   -0.9460   -0.8177 H   0  0  0  0  0  0  0  0  0  0  0  0
    3.4557    0.0997    2.5989 H   0  0  0  0  0  0  0  0  0  0  0  0
    2.0792    0.7262    3.5473 H   0  0  0  0  0  0  0  0  0  0  0  0
    0.8559   -1.4462    3.0751 H   0  0  0  0  0  0  0  0  0  0  0  0
    2.3271   -2.0795    2.3310 H   0  0  0  0  0  0  0  0  0  0  0  0
    2.3216   -1.6558    4.0474 H   0  0  0  0  0  0  0  0  0  0  0  0
   -0.0273   -2.7334   -1.1280 H   0  0  0  0  0  0  0  0  0  0  0  0
    0.0218   -1.0304   -1.7049 H   0  0  0  0  0  0  0  0  0  0  0  0
   -0.4851    1.6360    1.7079 H   0  0  0  0  0  0  0  0  0  0  0  0
   -1.6247    3.0049    1.6453 H   0  0  0  0  0  0  0  0  0  0  0  0
   -2.2896    0.1444    2.5365 H   0  0  0  0  0  0  0  0  0  0  0  0
   -2.1345    1.5543    3.5970 H   0  0  0  0  0  0  0  0  0  0  0  0
   -3.4592    1.4686    2.4202 H   0  0  0  0  0  0  0  0  0  0  0  0
   -4.0787   -1.4548   -1.4183 H   0  0  0  0  0  0  0  0  0  0  0  0
   -3.7660   -2.2297    0.1583 H   0  0  0  0  0  0  0  0  0  0  0  0
   -5.8044   -1.1342    1.0952 H   0  0  0  0  0  0  0  0  0  0  0  0
   -6.1155   -0.3661   -0.4664 H   0  0  0  0  0  0  0  0  0  0  0  0
   -6.2160   -2.1275   -0.3135 H   0  0  0  0  0  0  0  0  0  0  0  0
  1  2  1  0  0  0  0
  2  3  1  0  0  0  0
  3  4  2  0  0  0  0
  4  5  2  0  0  0  0
  4  6  2  0  0  0  0
  6  7  1  0  0  0  0
  7  8  1  0  0  0  0
  4  9  1  0  0  0  0
  9 10  1  0  0  0  0
 10 11  1  0  0  0  0
 11 12  1  0  0  0  0
 12 13  2  0  0  0  0
 12 14  2  0  0  0  0
 14 15  1  0  0  0  0
 15 16  1  0  0  0  0
 12 17  2  0  0  0  0
 17 18  1  0  0  0  0
 18 19  1  0  0  0  0
  1 20  1  0  0  0  0
  1 21  1  0  0  0  0
  1 22  1  0  0  0  0
  2 23  1  0  0  0  0
  2 24  1  0  0  0  0
  7 25  1  0  0  0  0
  7 26  1  0  0  0  0
  8 27  1  0  0  0  0
  8 28  1  0  0  0  0
  8 29  1  0  0  0  0
 10 30  1  0  0  0  0
 10 31  1  0  0  0  0
 15 32  1  0  0  0  0
 15 33  1  0  0  0  0
 16 34  1  0  0  0  0
 16 35  1  0  0  0  0
 16 36  1  0  0  0  0
 18 37  1  0  0  0  0
 18 38  1  0  0  0  0
 19 39  1  0  0  0  0
 19 40  1  0  0  0  0
 19 41  1  0  0  0  0
M  END
