 xtb: 6.7.1 (edcfbbe)
          04092507313D

 38 37  0     0  0            999 V2000
    3.1849   -3.4660    0.3642 C   0  0  0  0  0  0  0  0  0  0  0  0
    2.9085   -2.0607    0.8733 C   0  0  0  0  0  0  0  0  0  0  0  0
    2.7485   -1.1359   -0.2209 O   0  0  0  0  0  0  0  0  0  0  0  0
    1.5859   -1.0582   -0.8203 C   0  0  0  0  0  0  0  0  0  0  0  0
    0.6039   -1.7128   -0.5135 O   0  0  0  0  0  0  0  0  0  0  0  0
    1.5781   -0.0405   -1.9383 C   0  0  0  0  0  0  0  0  0  0  0  0
    0.4104    0.9294   -1.7614 C   0  0  0  0  0  0  0  0  0  0  0  0
    0.3565    1.6025   -2.6227 H   0  0  0  0  0  0  0  0  0  0  0  0
    0.5021    1.7811   -0.5057 C   0  0  0  0  0  0  0  0  0  0  0  0
   -0.4813    2.1691    0.0904 O   0  0  0  0  0  0  0  0  0  0  0  0
    1.7407    2.0316   -0.1687 O   0  0  0  0  0  0  0  0  0  0  0  0
    1.9795    2.8235    1.0144 C   0  0  0  0  0  0  0  0  0  0  0  0
    1.8344    4.3071    0.7207 C   0  0  0  0  0  0  0  0  0  0  0  0
   -1.2188    0.1012   -1.7561 S   0  0  0  0  0  0  0  0  0  0  0  0
   -1.4936   -0.3968    0.2805 P   0  0  0  0  0  0  0  0  0  0  0  0
   -0.3452   -0.2270    1.8618 S   0  0  0  0  0  0  0  0  0  0  0  0
   -2.8427    0.4903    0.4085 O   0  0  0  0  0  0  0  0  0  0  0  0
   -3.5101    0.6414    1.6607 C   0  0  0  0  0  0  0  0  0  0  0  0
   -2.0439   -1.8984    0.2769 O   0  0  0  0  0  0  0  0  0  0  0  0
   -2.8611   -2.4142   -0.7842 C   0  0  0  0  0  0  0  0  0  0  0  0
    4.0505   -3.4622   -0.2927 H   0  0  0  0  0  0  0  0  0  0  0  0
    3.3771   -4.1188    1.2091 H   0  0  0  0  0  0  0  0  0  0  0  0
    2.3228   -3.8429   -0.1815 H   0  0  0  0  0  0  0  0  0  0  0  0
    3.7542   -1.6652    1.4350 H   0  0  0  0  0  0  0  0  0  0  0  0
    2.0037   -2.0340    1.4883 H   0  0  0  0  0  0  0  0  0  0  0  0
    1.4467   -0.5711   -2.8827 H   0  0  0  0  0  0  0  0  0  0  0  0
    2.5227    0.5017   -1.9361 H   0  0  0  0  0  0  0  0  0  0  0  0
    1.2789    2.5012    1.7906 H   0  0  0  0  0  0  0  0  0  0  0  0
    2.9999    2.5677    1.2985 H   0  0  0  0  0  0  0  0  0  0  0  0
    0.8083    4.5357    0.4414 H   0  0  0  0  0  0  0  0  0  0  0  0
    2.0888    4.8710    1.6119 H   0  0  0  0  0  0  0  0  0  0  0  0
    2.4985    4.5953   -0.0893 H   0  0  0  0  0  0  0  0  0  0  0  0
   -4.3711    1.2726    1.4564 H   0  0  0  0  0  0  0  0  0  0  0  0
   -2.8455    1.1217    2.3807 H   0  0  0  0  0  0  0  0  0  0  0  0
   -3.8228   -0.3300    2.0482 H   0  0  0  0  0  0  0  0  0  0  0  0
   -3.3828   -3.2684   -0.3593 H   0  0  0  0  0  0  0  0  0  0  0  0
   -2.2217   -2.7260   -1.6091 H   0  0  0  0  0  0  0  0  0  0  0  0
   -3.5698   -1.6585   -1.1266 H   0  0  0  0  0  0  0  0  0  0  0  0
  1  2  1  0  0  0  0
  2  3  1  0  0  0  0
  3  4  4  0  0  0  0
  4  5  2  0  0  0  0
  4  6  1  0  0  0  0
  6  7  1  0  0  0  0
  7  8  1  0  0  0  0
  7  9  1  0  0  0  0
  9 10  2  0  0  0  0
  9 11  4  0  0  0  0
 11 12  1  0  0  0  0
 12 13  1  0  0  0  0
  7 14  1  0  0  0  0
 14 15  1  0  0  0  0
 15 16  2  0  0  0  0
 15 17  1  0  0  0  0
 17 18  1  0  0  0  0
 15 19  1  0  0  0  0
 19 20  1  0  0  0  0
  1 21  1  0  0  0  0
  1 22  1  0  0  0  0
  1 23  1  0  0  0  0
  2 24  1  0  0  0  0
  2 25  1  0  0  0  0
  6 26  1  0  0  0  0
  6 27  1  0  0  0  0
 12 28  1  0  0  0  0
 12 29  1  0  0  0  0
 13 30  1  0  0  0  0
 13 31  1  0  0  0  0
 13 32  1  0  0  0  0
 18 33  1  0  0  0  0
 18 34  1  0  0  0  0
 18 35  1  0  0  0  0
 20 36  1  0  0  0  0
 20 37  1  0  0  0  0
 20 38  1  0  0  0  0
M  END
