 xtb: 6.7.1 (edcfbbe)
          04092505203D

 41 40  0     0  0            999 V2000
    2.9595   -1.0709   -2.8648 C   0  0  0  0  0  0  0  0  0  0  0  0
    1.6563   -0.9744   -2.1002 C   0  0  0  0  0  0  0  0  0  0  0  0
    1.6956    0.1309   -1.1618 O   0  0  0  0  0  0  0  0  0  0  0  0
    1.9993   -0.0589    0.3696 P   0  0  0  0  0  0  0  0  0  0  0  0
    2.2555    1.6078    1.3575 S   0  0  0  0  0  0  0  0  0  0  0  0
    3.2734   -1.0102    0.3301 O   0  0  0  0  0  0  0  0  0  0  0  0
    3.9483   -1.3955    1.5451 C   0  0  0  0  0  0  0  0  0  0  0  0
    5.2976   -1.9708    1.1654 C   0  0  0  0  0  0  0  0  0  0  0  0
    0.5391   -1.3811    1.1844 S   0  0  0  0  0  0  0  0  0  0  0  0
   -0.5093   -0.2062    2.0950 C   0  0  0  0  0  0  0  0  0  0  0  0
   -2.2258   -0.1979    1.5344 S   0  0  0  0  0  0  0  0  0  0  0  0
   -1.8988    0.6044   -0.4092 P   0  0  0  0  0  0  0  0  0  0  0  0
   -0.7394    2.1769   -0.5306 S   0  0  0  0  0  0  0  0  0  0  0  0
   -3.3700    0.7900   -0.9789 O   0  0  0  0  0  0  0  0  0  0  0  0
   -4.1393    1.9881   -0.7717 C   0  0  0  0  0  0  0  0  0  0  0  0
   -4.4940    2.2011    0.6853 C   0  0  0  0  0  0  0  0  0  0  0  0
   -1.3525   -0.6059   -1.2630 O   0  0  0  0  0  0  0  0  0  0  0  0
   -2.0570   -1.8708   -1.3894 C   0  0  0  0  0  0  0  0  0  0  0  0
   -2.8256   -1.9255   -2.6929 C   0  0  0  0  0  0  0  0  0  0  0  0
    3.1661   -0.1287   -3.3651 H   0  0  0  0  0  0  0  0  0  0  0  0
    3.7779   -1.2939   -2.1855 H   0  0  0  0  0  0  0  0  0  0  0  0
    2.8781   -1.8613   -3.6045 H   0  0  0  0  0  0  0  0  0  0  0  0
    1.4474   -1.8961   -1.5500 H   0  0  0  0  0  0  0  0  0  0  0  0
    0.8183   -0.7389   -2.7590 H   0  0  0  0  0  0  0  0  0  0  0  0
    4.0512   -0.5093    2.1799 H   0  0  0  0  0  0  0  0  0  0  0  0
    3.3282   -2.1349    2.0591 H   0  0  0  0  0  0  0  0  0  0  0  0
    5.8898   -1.2226    0.6459 H   0  0  0  0  0  0  0  0  0  0  0  0
    5.8187   -2.2761    2.0667 H   0  0  0  0  0  0  0  0  0  0  0  0
    5.1661   -2.8318    0.5166 H   0  0  0  0  0  0  0  0  0  0  0  0
   -0.0739    0.7922    1.9927 H   0  0  0  0  0  0  0  0  0  0  0  0
   -0.5340   -0.5168    3.1364 H   0  0  0  0  0  0  0  0  0  0  0  0
   -3.5641    2.8361   -1.1556 H   0  0  0  0  0  0  0  0  0  0  0  0
   -5.0288    1.8337   -1.3841 H   0  0  0  0  0  0  0  0  0  0  0  0
   -3.5961    2.4316    1.2571 H   0  0  0  0  0  0  0  0  0  0  0  0
   -5.1839    3.0349    0.7672 H   0  0  0  0  0  0  0  0  0  0  0  0
   -4.9547    1.3075    1.0989 H   0  0  0  0  0  0  0  0  0  0  0  0
   -1.2716   -2.6282   -1.3526 H   0  0  0  0  0  0  0  0  0  0  0  0
   -2.7233   -1.9922   -0.5312 H   0  0  0  0  0  0  0  0  0  0  0  0
   -2.1553   -1.7634   -3.5325 H   0  0  0  0  0  0  0  0  0  0  0  0
   -3.2882   -2.9029   -2.7876 H   0  0  0  0  0  0  0  0  0  0  0  0
   -3.5969   -1.1603   -2.7069 H   0  0  0  0  0  0  0  0  0  0  0  0
  1  2  1  0  0  0  0
  2  3  1  0  0  0  0
  3  4  2  0  0  0  0
  4  5  2  0  0  0  0
  4  6  2  0  0  0  0
  6  7  1  0  0  0  0
  7  8  1  0  0  0  0
  4  9  1  0  0  0  0
  9 10  1  0  0  0  0
 10 11  1  0  0  0  0
 11 12  1  0  0  0  0
 12 13  2  0  0  0  0
 12 14  2  0  0  0  0
 14 15  1  0  0  0  0
 15 16  1  0  0  0  0
 12 17  2  0  0  0  0
 17 18  1  0  0  0  0
 18 19  1  0  0  0  0
  1 20  1  0  0  0  0
  1 21  1  0  0  0  0
  1 22  1  0  0  0  0
  2 23  1  0  0  0  0
  2 24  1  0  0  0  0
  7 25  1  0  0  0  0
  7 26  1  0  0  0  0
  8 27  1  0  0  0  0
  8 28  1  0  0  0  0
  8 29  1  0  0  0  0
 10 30  1  0  0  0  0
 10 31  1  0  0  0  0
 15 32  1  0  0  0  0
 15 33  1  0  0  0  0
 16 34  1  0  0  0  0
 16 35  1  0  0  0  0
 16 36  1  0  0  0  0
 18 37  1  0  0  0  0
 18 38  1  0  0  0  0
 19 39  1  0  0  0  0
 19 40  1  0  0  0  0
 19 41  1  0  0  0  0
M  END
