 xtb: 6.7.1 (edcfbbe)
          04092505213D

 41 40  0     0  0            999 V2000
    0.8452   -1.9208    2.9247 C   0  0  0  0  0  0  0  0  0  0  0  0
    2.0860   -1.2039    2.4342 C   0  0  0  0  0  0  0  0  0  0  0  0
    1.6980   -0.2020    1.4597 O   0  0  0  0  0  0  0  0  0  0  0  0
    2.4501   -0.0163    0.0836 P   0  0  0  0  0  0  0  0  0  0  0  0
    3.2263   -1.6358   -0.7113 S   0  0  0  0  0  0  0  0  0  0  0  0
    3.5010    1.1172    0.4468 O   0  0  0  0  0  0  0  0  0  0  0  0
    4.5546    1.5135   -0.4544 C   0  0  0  0  0  0  0  0  0  0  0  0
    5.7199    2.0136    0.3757 C   0  0  0  0  0  0  0  0  0  0  0  0
    0.9986    0.9887   -1.0747 S   0  0  0  0  0  0  0  0  0  0  0  0
    0.1474   -0.5082   -1.6490 C   0  0  0  0  0  0  0  0  0  0  0  0
   -0.9483   -1.2028   -0.3957 S   0  0  0  0  0  0  0  0  0  0  0  0
   -2.4175    0.3456   -0.4959 P   0  0  0  0  0  0  0  0  0  0  0  0
   -2.6951    1.1031   -2.2793 S   0  0  0  0  0  0  0  0  0  0  0  0
   -2.0275    1.4583    0.5424 O   0  0  0  0  0  0  0  0  0  0  0  0
   -1.4805    1.2785    1.8721 C   0  0  0  0  0  0  0  0  0  0  0  0
   -2.3323    0.3809    2.7429 C   0  0  0  0  0  0  0  0  0  0  0  0
   -3.7006   -0.3292    0.1481 O   0  0  0  0  0  0  0  0  0  0  0  0
   -4.4709   -1.3099   -0.5762 C   0  0  0  0  0  0  0  0  0  0  0  0
   -5.8313   -1.4117    0.0833 C   0  0  0  0  0  0  0  0  0  0  0  0
    0.1678   -1.2181    3.3998 H   0  0  0  0  0  0  0  0  0  0  0  0
    0.3346   -2.3966    2.0907 H   0  0  0  0  0  0  0  0  0  0  0  0
    1.1383   -2.6792    3.6434 H   0  0  0  0  0  0  0  0  0  0  0  0
    2.7832   -1.9024    1.9601 H   0  0  0  0  0  0  0  0  0  0  0  0
    2.5937   -0.6746    3.2424 H   0  0  0  0  0  0  0  0  0  0  0  0
    4.8404    0.6487   -1.0629 H   0  0  0  0  0  0  0  0  0  0  0  0
    4.1611    2.2975   -1.1062 H   0  0  0  0  0  0  0  0  0  0  0  0
    6.5093    2.3521   -0.2872 H   0  0  0  0  0  0  0  0  0  0  0  0
    5.3989    2.8385    1.0051 H   0  0  0  0  0  0  0  0  0  0  0  0
    6.0996    1.2148    1.0067 H   0  0  0  0  0  0  0  0  0  0  0  0
    0.8857   -1.2711   -1.8986 H   0  0  0  0  0  0  0  0  0  0  0  0
   -0.4424   -0.2189   -2.5197 H   0  0  0  0  0  0  0  0  0  0  0  0
   -0.4643    0.8864    1.7729 H   0  0  0  0  0  0  0  0  0  0  0  0
   -1.4412    2.2982    2.2587 H   0  0  0  0  0  0  0  0  0  0  0  0
   -2.3075   -0.6417    2.3724 H   0  0  0  0  0  0  0  0  0  0  0  0
   -1.9472    0.4033    3.7581 H   0  0  0  0  0  0  0  0  0  0  0  0
   -3.3616    0.7300    2.7443 H   0  0  0  0  0  0  0  0  0  0  0  0
   -4.5537   -0.9886   -1.6199 H   0  0  0  0  0  0  0  0  0  0  0  0
   -3.9338   -2.2612   -0.5361 H   0  0  0  0  0  0  0  0  0  0  0  0
   -6.3370   -0.4511    0.0440 H   0  0  0  0  0  0  0  0  0  0  0  0
   -6.4266   -2.1510   -0.4422 H   0  0  0  0  0  0  0  0  0  0  0  0
   -5.7205   -1.7103    1.1215 H   0  0  0  0  0  0  0  0  0  0  0  0
  1  2  1  0  0  0  0
  2  3  1  0  0  0  0
  3  4  2  0  0  0  0
  4  5  2  0  0  0  0
  4  6  2  0  0  0  0
  6  7  1  0  0  0  0
  7  8  1  0  0  0  0
  4  9  1  0  0  0  0
  9 10  1  0  0  0  0
 10 11  1  0  0  0  0
 11 12  1  0  0  0  0
 12 13  2  0  0  0  0
 12 14  2  0  0  0  0
 14 15  1  0  0  0  0
 15 16  1  0  0  0  0
 12 17  2  0  0  0  0
 17 18  1  0  0  0  0
 18 19  1  0  0  0  0
  1 20  1  0  0  0  0
  1 21  1  0  0  0  0
  1 22  1  0  0  0  0
  2 23  1  0  0  0  0
  2 24  1  0  0  0  0
  7 25  1  0  0  0  0
  7 26  1  0  0  0  0
  8 27  1  0  0  0  0
  8 28  1  0  0  0  0
  8 29  1  0  0  0  0
 10 30  1  0  0  0  0
 10 31  1  0  0  0  0
 15 32  1  0  0  0  0
 15 33  1  0  0  0  0
 16 34  1  0  0  0  0
 16 35  1  0  0  0  0
 16 36  1  0  0  0  0
 18 37  1  0  0  0  0
 18 38  1  0  0  0  0
 19 39  1  0  0  0  0
 19 40  1  0  0  0  0
 19 41  1  0  0  0  0
M  END
