 xtb: 6.7.1 (edcfbbe)
          04092505213D

 41 40  0     0  0            999 V2000
    5.5533   -0.3137   -0.8934 C   0  0  0  0  0  0  0  0  0  0  0  0
    4.3964    0.6064   -1.2244 C   0  0  0  0  0  0  0  0  0  0  0  0
    3.6393    0.9487   -0.0381 O   0  0  0  0  0  0  0  0  0  0  0  0
    2.4018    0.1379    0.5125 P   0  0  0  0  0  0  0  0  0  0  0  0
    1.6908    1.0023    2.1124 S   0  0  0  0  0  0  0  0  0  0  0  0
    2.9768   -1.3309    0.7024 O   0  0  0  0  0  0  0  0  0  0  0  0
    2.3821   -2.2911    1.5938 C   0  0  0  0  0  0  0  0  0  0  0  0
    0.9866   -2.6915    1.1672 C   0  0  0  0  0  0  0  0  0  0  0  0
    1.0949   -0.0235   -1.1659 S   0  0  0  0  0  0  0  0  0  0  0  0
    0.2439    1.5719   -0.9197 C   0  0  0  0  0  0  0  0  0  0  0  0
   -1.4832    1.5376   -1.4460 S   0  0  0  0  0  0  0  0  0  0  0  0
   -2.1950   -0.1576   -0.3311 P   0  0  0  0  0  0  0  0  0  0  0  0
   -1.8133   -1.9554   -0.9974 S   0  0  0  0  0  0  0  0  0  0  0  0
   -3.7306    0.2103   -0.1529 O   0  0  0  0  0  0  0  0  0  0  0  0
   -4.6067    0.6342   -1.2140 C   0  0  0  0  0  0  0  0  0  0  0  0
   -4.5760   -0.2914   -2.4117 C   0  0  0  0  0  0  0  0  0  0  0  0
   -1.6202    0.0179    1.1274 O   0  0  0  0  0  0  0  0  0  0  0  0
   -1.9707    1.1175    2.0058 C   0  0  0  0  0  0  0  0  0  0  0  0
   -3.0515    0.6895    2.9760 C   0  0  0  0  0  0  0  0  0  0  0  0
    6.1723    0.1307   -0.1187 H   0  0  0  0  0  0  0  0  0  0  0  0
    5.1865   -1.2744   -0.5425 H   0  0  0  0  0  0  0  0  0  0  0  0
    6.1510   -0.4645   -1.7870 H   0  0  0  0  0  0  0  0  0  0  0  0
    3.7218    0.1480   -1.9534 H   0  0  0  0  0  0  0  0  0  0  0  0
    4.7496    1.5690   -1.5984 H   0  0  0  0  0  0  0  0  0  0  0  0
    3.0694   -3.1376    1.5603 H   0  0  0  0  0  0  0  0  0  0  0  0
    2.3664   -1.8620    2.6003 H   0  0  0  0  0  0  0  0  0  0  0  0
    0.6303   -3.4989    1.7987 H   0  0  0  0  0  0  0  0  0  0  0  0
    0.3018   -1.8490    1.2668 H   0  0  0  0  0  0  0  0  0  0  0  0
    0.9745   -3.0211    0.1304 H   0  0  0  0  0  0  0  0  0  0  0  0
    0.7164    2.3330   -1.5370 H   0  0  0  0  0  0  0  0  0  0  0  0
    0.3073    1.8297    0.1405 H   0  0  0  0  0  0  0  0  0  0  0  0
   -5.5918    0.6459   -0.7444 H   0  0  0  0  0  0  0  0  0  0  0  0
   -4.3202    1.6488   -1.5054 H   0  0  0  0  0  0  0  0  0  0  0  0
   -5.3084    0.0389   -3.1411 H   0  0  0  0  0  0  0  0  0  0  0  0
   -3.5875   -0.2780   -2.8698 H   0  0  0  0  0  0  0  0  0  0  0  0
   -4.8001   -1.3119   -2.1101 H   0  0  0  0  0  0  0  0  0  0  0  0
   -1.0416    1.3632    2.5267 H   0  0  0  0  0  0  0  0  0  0  0  0
   -2.2959    1.9691    1.4026 H   0  0  0  0  0  0  0  0  0  0  0  0
   -3.2609    1.5095    3.6557 H   0  0  0  0  0  0  0  0  0  0  0  0
   -3.9573    0.4245    2.4368 H   0  0  0  0  0  0  0  0  0  0  0  0
   -2.7174   -0.1726    3.5464 H   0  0  0  0  0  0  0  0  0  0  0  0
  1  2  1  0  0  0  0
  2  3  1  0  0  0  0
  3  4  2  0  0  0  0
  4  5  2  0  0  0  0
  4  6  2  0  0  0  0
  6  7  1  0  0  0  0
  7  8  1  0  0  0  0
  4  9  1  0  0  0  0
  9 10  1  0  0  0  0
 10 11  1  0  0  0  0
 11 12  1  0  0  0  0
 12 13  2  0  0  0  0
 12 14  2  0  0  0  0
 14 15  1  0  0  0  0
 15 16  1  0  0  0  0
 12 17  2  0  0  0  0
 17 18  1  0  0  0  0
 18 19  1  0  0  0  0
  1 20  1  0  0  0  0
  1 21  1  0  0  0  0
  1 22  1  0  0  0  0
  2 23  1  0  0  0  0
  2 24  1  0  0  0  0
  7 25  1  0  0  0  0
  7 26  1  0  0  0  0
  8 27  1  0  0  0  0
  8 28  1  0  0  0  0
  8 29  1  0  0  0  0
 10 30  1  0  0  0  0
 10 31  1  0  0  0  0
 15 32  1  0  0  0  0
 15 33  1  0  0  0  0
 16 34  1  0  0  0  0
 16 35  1  0  0  0  0
 16 36  1  0  0  0  0
 18 37  1  0  0  0  0
 18 38  1  0  0  0  0
 19 39  1  0  0  0  0
 19 40  1  0  0  0  0
 19 41  1  0  0  0  0
M  END
