 xtb: 6.7.1 (edcfbbe)
          04092505213D

 41 40  0     0  0            999 V2000
    4.4739    1.8725    0.1484 C   0  0  0  0  0  0  0  0  0  0  0  0
    4.2260    0.7061   -0.7857 C   0  0  0  0  0  0  0  0  0  0  0  0
    3.3382   -0.2819   -0.2362 O   0  0  0  0  0  0  0  0  0  0  0  0
    1.9280    0.0109    0.4568 P   0  0  0  0  0  0  0  0  0  0  0  0
    1.9814    0.7070    2.2873 S   0  0  0  0  0  0  0  0  0  0  0  0
    1.2837   -1.4269    0.2930 O   0  0  0  0  0  0  0  0  0  0  0  0
    1.1479   -2.3387    1.3927 C   0  0  0  0  0  0  0  0  0  0  0  0
    2.4538   -3.0586    1.6543 C   0  0  0  0  0  0  0  0  0  0  0  0
    0.8996    1.1723   -0.9921 S   0  0  0  0  0  0  0  0  0  0  0  0
    0.4502   -0.1205   -2.1662 C   0  0  0  0  0  0  0  0  0  0  0  0
   -0.9233   -1.2384   -1.6566 S   0  0  0  0  0  0  0  0  0  0  0  0
   -2.0938   -0.0863   -0.3607 P   0  0  0  0  0  0  0  0  0  0  0  0
   -3.8597   -0.8503    0.0071 S   0  0  0  0  0  0  0  0  0  0  0  0
   -2.1444    1.4132   -0.9045 O   0  0  0  0  0  0  0  0  0  0  0  0
   -3.1836    1.8695   -1.7874 C   0  0  0  0  0  0  0  0  0  0  0  0
   -2.9170    1.4565   -3.2210 C   0  0  0  0  0  0  0  0  0  0  0  0
   -1.1212    0.0684    0.8944 O   0  0  0  0  0  0  0  0  0  0  0  0
   -1.6042    0.7351    2.0866 C   0  0  0  0  0  0  0  0  0  0  0  0
   -2.0230   -0.2743    3.1352 C   0  0  0  0  0  0  0  0  0  0  0  0
    3.5502    2.4295    0.3061 H   0  0  0  0  0  0  0  0  0  0  0  0
    4.8315    1.5206    1.1133 H   0  0  0  0  0  0  0  0  0  0  0  0
    5.2149    2.5336   -0.2896 H   0  0  0  0  0  0  0  0  0  0  0  0
    5.1441    0.1481   -0.9787 H   0  0  0  0  0  0  0  0  0  0  0  0
    3.8011    1.0599   -1.7298 H   0  0  0  0  0  0  0  0  0  0  0  0
    0.8292   -1.7794    2.2787 H   0  0  0  0  0  0  0  0  0  0  0  0
    0.3544   -3.0221    1.0840 H   0  0  0  0  0  0  0  0  0  0  0  0
    2.3153   -3.7809    2.4524 H   0  0  0  0  0  0  0  0  0  0  0  0
    2.7870   -3.5689    0.7549 H   0  0  0  0  0  0  0  0  0  0  0  0
    3.2130   -2.3364    1.9525 H   0  0  0  0  0  0  0  0  0  0  0  0
    1.2966   -0.7806   -2.3432 H   0  0  0  0  0  0  0  0  0  0  0  0
    0.1517    0.3929   -3.0768 H   0  0  0  0  0  0  0  0  0  0  0  0
   -4.1395    1.4652   -1.4371 H   0  0  0  0  0  0  0  0  0  0  0  0
   -3.1733    2.9541   -1.6716 H   0  0  0  0  0  0  0  0  0  0  0  0
   -1.9564    1.8433   -3.5506 H   0  0  0  0  0  0  0  0  0  0  0  0
   -2.9175    0.3702   -3.3024 H   0  0  0  0  0  0  0  0  0  0  0  0
   -3.6998    1.8560   -3.8578 H   0  0  0  0  0  0  0  0  0  0  0  0
   -0.7624    1.3398    2.4320 H   0  0  0  0  0  0  0  0  0  0  0  0
   -2.4367    1.3889    1.8140 H   0  0  0  0  0  0  0  0  0  0  0  0
   -1.1818   -0.9078    3.4040 H   0  0  0  0  0  0  0  0  0  0  0  0
   -2.3640    0.2566    4.0182 H   0  0  0  0  0  0  0  0  0  0  0  0
   -2.8307   -0.8980    2.7579 H   0  0  0  0  0  0  0  0  0  0  0  0
  1  2  1  0  0  0  0
  2  3  1  0  0  0  0
  3  4  1  0  0  0  0
  4  5  2  0  0  0  0
  4  6  2  0  0  0  0
  6  7  1  0  0  0  0
  7  8  1  0  0  0  0
  4  9  1  0  0  0  0
  9 10  1  0  0  0  0
 10 11  1  0  0  0  0
 11 12  1  0  0  0  0
 12 13  2  0  0  0  0
 12 14  2  0  0  0  0
 14 15  1  0  0  0  0
 15 16  1  0  0  0  0
 12 17  1  0  0  0  0
 17 18  1  0  0  0  0
 18 19  1  0  0  0  0
  1 20  1  0  0  0  0
  1 21  1  0  0  0  0
  1 22  1  0  0  0  0
  2 23  1  0  0  0  0
  2 24  1  0  0  0  0
  7 25  1  0  0  0  0
  7 26  1  0  0  0  0
  8 27  1  0  0  0  0
  8 28  1  0  0  0  0
  8 29  1  0  0  0  0
 10 30  1  0  0  0  0
 10 31  1  0  0  0  0
 15 32  1  0  0  0  0
 15 33  1  0  0  0  0
 16 34  1  0  0  0  0
 16 35  1  0  0  0  0
 16 36  1  0  0  0  0
 18 37  1  0  0  0  0
 18 38  1  0  0  0  0
 19 39  1  0  0  0  0
 19 40  1  0  0  0  0
 19 41  1  0  0  0  0
M  END
