 xtb: 6.7.1 (edcfbbe)
          04092505203D

 41 40  0     0  0            999 V2000
    1.5558   -2.8954   -1.0352 C   0  0  0  0  0  0  0  0  0  0  0  0
    1.7546   -1.6702   -1.9024 C   0  0  0  0  0  0  0  0  0  0  0  0
    1.4603   -0.4333   -1.2030 O   0  0  0  0  0  0  0  0  0  0  0  0
    2.2549    0.1365    0.0344 P   0  0  0  0  0  0  0  0  0  0  0  0
    2.1638    2.0907    0.1646 S   0  0  0  0  0  0  0  0  0  0  0  0
    3.7045   -0.4741   -0.1669 O   0  0  0  0  0  0  0  0  0  0  0  0
    4.8642    0.0582    0.4986 C   0  0  0  0  0  0  0  0  0  0  0  0
    4.8155   -0.1623    1.9962 C   0  0  0  0  0  0  0  0  0  0  0  0
    1.4734   -0.8513    1.7519 S   0  0  0  0  0  0  0  0  0  0  0  0
   -0.1683   -0.1054    1.6855 C   0  0  0  0  0  0  0  0  0  0  0  0
   -1.3161   -1.0636    0.6415 S   0  0  0  0  0  0  0  0  0  0  0  0
   -2.2344    0.5817   -0.3449 P   0  0  0  0  0  0  0  0  0  0  0  0
   -1.0750    1.6672   -1.4952 S   0  0  0  0  0  0  0  0  0  0  0  0
   -2.8632    1.4547    0.8129 O   0  0  0  0  0  0  0  0  0  0  0  0
   -4.1511    1.2275    1.4419 C   0  0  0  0  0  0  0  0  0  0  0  0
   -4.2146   -0.0796    2.2035 C   0  0  0  0  0  0  0  0  0  0  0  0
   -3.5046   -0.0546   -1.0524 O   0  0  0  0  0  0  0  0  0  0  0  0
   -3.4392   -0.6034   -2.3820 C   0  0  0  0  0  0  0  0  0  0  0  0
   -2.4998   -1.7885   -2.4596 C   0  0  0  0  0  0  0  0  0  0  0  0
    2.2869   -2.9106   -0.2298 H   0  0  0  0  0  0  0  0  0  0  0  0
    0.5571   -2.9030   -0.6042 H   0  0  0  0  0  0  0  0  0  0  0  0
    1.6858   -3.7812   -1.6489 H   0  0  0  0  0  0  0  0  0  0  0  0
    1.0568   -1.6483   -2.7416 H   0  0  0  0  0  0  0  0  0  0  0  0
    2.7794   -1.6129   -2.2733 H   0  0  0  0  0  0  0  0  0  0  0  0
    5.6946   -0.4782    0.0373 H   0  0  0  0  0  0  0  0  0  0  0  0
    4.9343    1.1259    0.2689 H   0  0  0  0  0  0  0  0  0  0  0  0
    5.7643    0.1336    2.4320 H   0  0  0  0  0  0  0  0  0  0  0  0
    4.0226    0.4416    2.4345 H   0  0  0  0  0  0  0  0  0  0  0  0
    4.6240   -1.2084    2.2206 H   0  0  0  0  0  0  0  0  0  0  0  0
   -0.0851    0.9076    1.2809 H   0  0  0  0  0  0  0  0  0  0  0  0
   -0.5483   -0.0930    2.7034 H   0  0  0  0  0  0  0  0  0  0  0  0
   -4.2535    2.0870    2.1064 H   0  0  0  0  0  0  0  0  0  0  0  0
   -4.9174    1.2636    0.6659 H   0  0  0  0  0  0  0  0  0  0  0  0
   -3.4184   -0.1332    2.9416 H   0  0  0  0  0  0  0  0  0  0  0  0
   -5.1719   -0.1394    2.7123 H   0  0  0  0  0  0  0  0  0  0  0  0
   -4.1229   -0.9219    1.5218 H   0  0  0  0  0  0  0  0  0  0  0  0
   -4.4707   -0.8856   -2.5970 H   0  0  0  0  0  0  0  0  0  0  0  0
   -3.1158    0.1883   -3.0648 H   0  0  0  0  0  0  0  0  0  0  0  0
   -2.5547   -2.2292   -3.4497 H   0  0  0  0  0  0  0  0  0  0  0  0
   -1.4793   -1.4530   -2.2769 H   0  0  0  0  0  0  0  0  0  0  0  0
   -2.7637   -2.5340   -1.7136 H   0  0  0  0  0  0  0  0  0  0  0  0
  1  2  1  0  0  0  0
  2  3  1  0  0  0  0
  3  4  2  0  0  0  0
  4  5  2  0  0  0  0
  4  6  2  0  0  0  0
  6  7  1  0  0  0  0
  7  8  1  0  0  0  0
  4  9  1  0  0  0  0
  9 10  1  0  0  0  0
 10 11  1  0  0  0  0
 11 12  1  0  0  0  0
 12 13  2  0  0  0  0
 12 14  2  0  0  0  0
 14 15  1  0  0  0  0
 15 16  1  0  0  0  0
 12 17  2  0  0  0  0
 17 18  1  0  0  0  0
 18 19  1  0  0  0  0
  1 20  1  0  0  0  0
  1 21  1  0  0  0  0
  1 22  1  0  0  0  0
  2 23  1  0  0  0  0
  2 24  1  0  0  0  0
  7 25  1  0  0  0  0
  7 26  1  0  0  0  0
  8 27  1  0  0  0  0
  8 28  1  0  0  0  0
  8 29  1  0  0  0  0
 10 30  1  0  0  0  0
 10 31  1  0  0  0  0
 15 32  1  0  0  0  0
 15 33  1  0  0  0  0
 16 34  1  0  0  0  0
 16 35  1  0  0  0  0
 16 36  1  0  0  0  0
 18 37  1  0  0  0  0
 18 38  1  0  0  0  0
 19 39  1  0  0  0  0
 19 40  1  0  0  0  0
 19 41  1  0  0  0  0
M  END
