 xtb: 6.7.1 (edcfbbe)
          04092505213D

 41 40  0     0  0            999 V2000
    2.9363   -1.2262   -2.9731 C   0  0  0  0  0  0  0  0  0  0  0  0
    3.2220   -0.3219   -1.7918 C   0  0  0  0  0  0  0  0  0  0  0  0
    2.6594   -0.9287   -0.6060 O   0  0  0  0  0  0  0  0  0  0  0  0
    1.9483   -0.1301    0.5526 P   0  0  0  0  0  0  0  0  0  0  0  0
    1.2369    1.6552    0.1004 S   0  0  0  0  0  0  0  0  0  0  0  0
    3.1073   -0.0342    1.6381 O   0  0  0  0  0  0  0  0  0  0  0  0
    3.0551    0.8193    2.7970 C   0  0  0  0  0  0  0  0  0  0  0  0
    4.4690    1.2527    3.1303 C   0  0  0  0  0  0  0  0  0  0  0  0
    0.7537   -1.6414    1.3971 S   0  0  0  0  0  0  0  0  0  0  0  0
   -0.2718   -2.1827   -0.0251 C   0  0  0  0  0  0  0  0  0  0  0  0
   -0.4361   -0.9717   -1.3562 S   0  0  0  0  0  0  0  0  0  0  0  0
   -1.9296    0.2753   -0.5237 P   0  0  0  0  0  0  0  0  0  0  0  0
   -2.2644    1.9843   -1.4140 S   0  0  0  0  0  0  0  0  0  0  0  0
   -1.4718    0.2873    0.9937 O   0  0  0  0  0  0  0  0  0  0  0  0
   -1.8449    1.3473    1.8943 C   0  0  0  0  0  0  0  0  0  0  0  0
   -3.3339    1.3583    2.1633 C   0  0  0  0  0  0  0  0  0  0  0  0
   -3.2083   -0.6762   -0.4160 O   0  0  0  0  0  0  0  0  0  0  0  0
   -4.1905   -0.7591   -1.4594 C   0  0  0  0  0  0  0  0  0  0  0  0
   -3.6526   -1.4548   -2.6940 C   0  0  0  0  0  0  0  0  0  0  0  0
    1.8634   -1.3125   -3.1276 H   0  0  0  0  0  0  0  0  0  0  0  0
    3.3932   -0.8022   -3.8613 H   0  0  0  0  0  0  0  0  0  0  0  0
    3.3492   -2.2139   -2.7909 H   0  0  0  0  0  0  0  0  0  0  0  0
    2.7761    0.6697   -1.9272 H   0  0  0  0  0  0  0  0  0  0  0  0
    4.2945   -0.2135   -1.6178 H   0  0  0  0  0  0  0  0  0  0  0  0
    2.4181    1.6814    2.5697 H   0  0  0  0  0  0  0  0  0  0  0  0
    2.6114    0.2445    3.6138 H   0  0  0  0  0  0  0  0  0  0  0  0
    4.4524    1.8598    4.0295 H   0  0  0  0  0  0  0  0  0  0  0  0
    5.0937    0.3795    3.2944 H   0  0  0  0  0  0  0  0  0  0  0  0
    4.8839    1.8351    2.3122 H   0  0  0  0  0  0  0  0  0  0  0  0
   -1.2544   -2.4256    0.3744 H   0  0  0  0  0  0  0  0  0  0  0  0
    0.2059   -3.0520   -0.4708 H   0  0  0  0  0  0  0  0  0  0  0  0
   -1.2683    1.1337    2.7963 H   0  0  0  0  0  0  0  0  0  0  0  0
   -1.5132    2.2981    1.4638 H   0  0  0  0  0  0  0  0  0  0  0  0
   -3.6579    0.3833    2.5178 H   0  0  0  0  0  0  0  0  0  0  0  0
   -3.5567    2.1112    2.9126 H   0  0  0  0  0  0  0  0  0  0  0  0
   -3.8712    1.6008    1.2470 H   0  0  0  0  0  0  0  0  0  0  0  0
   -5.0117   -1.3159   -1.0060 H   0  0  0  0  0  0  0  0  0  0  0  0
   -4.5174    0.2561   -1.7061 H   0  0  0  0  0  0  0  0  0  0  0  0
   -2.8510   -0.8606   -3.1327 H   0  0  0  0  0  0  0  0  0  0  0  0
   -3.2632   -2.4373   -2.4407 H   0  0  0  0  0  0  0  0  0  0  0  0
   -4.4505   -1.5601   -3.4220 H   0  0  0  0  0  0  0  0  0  0  0  0
  1  2  1  0  0  0  0
  2  3  1  0  0  0  0
  3  4  2  0  0  0  0
  4  5  2  0  0  0  0
  4  6  2  0  0  0  0
  6  7  1  0  0  0  0
  7  8  1  0  0  0  0
  4  9  1  0  0  0  0
  9 10  1  0  0  0  0
 10 11  1  0  0  0  0
 11 12  1  0  0  0  0
 12 13  2  0  0  0  0
 12 14  2  0  0  0  0
 14 15  1  0  0  0  0
 15 16  1  0  0  0  0
 12 17  2  0  0  0  0
 17 18  1  0  0  0  0
 18 19  1  0  0  0  0
  1 20  1  0  0  0  0
  1 21  1  0  0  0  0
  1 22  1  0  0  0  0
  2 23  1  0  0  0  0
  2 24  1  0  0  0  0
  7 25  1  0  0  0  0
  7 26  1  0  0  0  0
  8 27  1  0  0  0  0
  8 28  1  0  0  0  0
  8 29  1  0  0  0  0
 10 30  1  0  0  0  0
 10 31  1  0  0  0  0
 15 32  1  0  0  0  0
 15 33  1  0  0  0  0
 16 34  1  0  0  0  0
 16 35  1  0  0  0  0
 16 36  1  0  0  0  0
 18 37  1  0  0  0  0
 18 38  1  0  0  0  0
 19 39  1  0  0  0  0
 19 40  1  0  0  0  0
 19 41  1  0  0  0  0
M  END
