 xtb: 6.7.1 (edcfbbe)
          04092505213D

 41 40  0     0  0            999 V2000
    4.8171    1.1511   -1.6068 C   0  0  0  0  0  0  0  0  0  0  0  0
    4.3797   -0.2821   -1.3722 C   0  0  0  0  0  0  0  0  0  0  0  0
    3.7235   -0.4180   -0.0962 O   0  0  0  0  0  0  0  0  0  0  0  0
    2.1457   -0.3320    0.0741 P   0  0  0  0  0  0  0  0  0  0  0  0
    1.2763    1.3101   -0.5834 S   0  0  0  0  0  0  0  0  0  0  0  0
    1.9795   -0.6111    1.6204 O   0  0  0  0  0  0  0  0  0  0  0  0
    1.9495    0.4489    2.5967 C   0  0  0  0  0  0  0  0  0  0  0  0
    3.3193    1.0635    2.7913 C   0  0  0  0  0  0  0  0  0  0  0  0
    1.5062   -2.1635   -0.7407 S   0  0  0  0  0  0  0  0  0  0  0  0
   -0.2365   -1.7705   -1.0390 C   0  0  0  0  0  0  0  0  0  0  0  0
   -1.1166   -1.2630    0.4695 S   0  0  0  0  0  0  0  0  0  0  0  0
   -2.1767    0.4392   -0.2902 P   0  0  0  0  0  0  0  0  0  0  0  0
   -1.9779    0.8449   -2.1904 S   0  0  0  0  0  0  0  0  0  0  0  0
   -1.7725    1.6356    0.6499 O   0  0  0  0  0  0  0  0  0  0  0  0
   -1.7672    1.5937    2.0968 C   0  0  0  0  0  0  0  0  0  0  0  0
   -3.1185    1.9589    2.6757 C   0  0  0  0  0  0  0  0  0  0  0  0
   -3.6821    0.1665    0.1613 O   0  0  0  0  0  0  0  0  0  0  0  0
   -4.6215   -0.5493   -0.6578 C   0  0  0  0  0  0  0  0  0  0  0  0
   -4.2268   -1.9975   -0.8642 C   0  0  0  0  0  0  0  0  0  0  0  0
    5.3491    1.2134   -2.5506 H   0  0  0  0  0  0  0  0  0  0  0  0
    3.9502    1.8075   -1.6458 H   0  0  0  0  0  0  0  0  0  0  0  0
    5.4705    1.4796   -0.8034 H   0  0  0  0  0  0  0  0  0  0  0  0
    5.2370   -0.9551   -1.3119 H   0  0  0  0  0  0  0  0  0  0  0  0
    3.7063   -0.6213   -2.1647 H   0  0  0  0  0  0  0  0  0  0  0  0
    1.2320    1.2060    2.2630 H   0  0  0  0  0  0  0  0  0  0  0  0
    1.5860   -0.0380    3.5024 H   0  0  0  0  0  0  0  0  0  0  0  0
    4.0453    0.2916    3.0312 H   0  0  0  0  0  0  0  0  0  0  0  0
    3.6294    1.5649    1.8755 H   0  0  0  0  0  0  0  0  0  0  0  0
    3.2789    1.7890    3.5978 H   0  0  0  0  0  0  0  0  0  0  0  0
   -0.6789   -2.6906   -1.4138 H   0  0  0  0  0  0  0  0  0  0  0  0
   -0.3210   -0.9639   -1.7736 H   0  0  0  0  0  0  0  0  0  0  0  0
   -1.4548    0.5955    2.4188 H   0  0  0  0  0  0  0  0  0  0  0  0
   -1.0083    2.3286    2.3743 H   0  0  0  0  0  0  0  0  0  0  0  0
   -3.0312    2.0201    3.7561 H   0  0  0  0  0  0  0  0  0  0  0  0
   -3.4408    2.9207    2.2861 H   0  0  0  0  0  0  0  0  0  0  0  0
   -3.8592    1.2080    2.4166 H   0  0  0  0  0  0  0  0  0  0  0  0
   -5.5616   -0.4619   -0.1114 H   0  0  0  0  0  0  0  0  0  0  0  0
   -4.7003   -0.0335   -1.6196 H   0  0  0  0  0  0  0  0  0  0  0  0
   -3.3344   -2.0503   -1.4865 H   0  0  0  0  0  0  0  0  0  0  0  0
   -4.0250   -2.4767    0.0905 H   0  0  0  0  0  0  0  0  0  0  0  0
   -5.0345   -2.5196   -1.3669 H   0  0  0  0  0  0  0  0  0  0  0  0
  1  2  1  0  0  0  0
  2  3  1  0  0  0  0
  3  4  2  0  0  0  0
  4  5  2  0  0  0  0
  4  6  2  0  0  0  0
  6  7  1  0  0  0  0
  7  8  1  0  0  0  0
  4  9  1  0  0  0  0
  9 10  1  0  0  0  0
 10 11  1  0  0  0  0
 11 12  1  0  0  0  0
 12 13  2  0  0  0  0
 12 14  2  0  0  0  0
 14 15  1  0  0  0  0
 15 16  1  0  0  0  0
 12 17  2  0  0  0  0
 17 18  1  0  0  0  0
 18 19  1  0  0  0  0
  1 20  1  0  0  0  0
  1 21  1  0  0  0  0
  1 22  1  0  0  0  0
  2 23  1  0  0  0  0
  2 24  1  0  0  0  0
  7 25  1  0  0  0  0
  7 26  1  0  0  0  0
  8 27  1  0  0  0  0
  8 28  1  0  0  0  0
  8 29  1  0  0  0  0
 10 30  1  0  0  0  0
 10 31  1  0  0  0  0
 15 32  1  0  0  0  0
 15 33  1  0  0  0  0
 16 34  1  0  0  0  0
 16 35  1  0  0  0  0
 16 36  1  0  0  0  0
 18 37  1  0  0  0  0
 18 38  1  0  0  0  0
 19 39  1  0  0  0  0
 19 40  1  0  0  0  0
 19 41  1  0  0  0  0
M  END
