 xtb: 6.7.1 (edcfbbe)
          04092507313D

 38 37  0     0  0            999 V2000
    4.5953   -2.9549   -1.7965 C   0  0  0  0  0  0  0  0  0  0  0  0
    3.0811   -2.9104   -1.9299 C   0  0  0  0  0  0  0  0  0  0  0  0
    2.5521   -1.7071   -1.3421 O   0  0  0  0  0  0  0  0  0  0  0  0
    2.2552   -1.7117   -0.0588 C   0  0  0  0  0  0  0  0  0  0  0  0
    2.3826   -2.6652    0.6761 O   0  0  0  0  0  0  0  0  0  0  0  0
    1.7435   -0.3627    0.4142 C   0  0  0  0  0  0  0  0  0  0  0  0
    0.9617    0.3777   -0.6692 C   0  0  0  0  0  0  0  0  0  0  0  0
    1.5960    0.5398   -1.5435 H   0  0  0  0  0  0  0  0  0  0  0  0
    0.4471    1.7024   -0.1505 C   0  0  0  0  0  0  0  0  0  0  0  0
   -0.7440    1.9454   -0.0601 O   0  0  0  0  0  0  0  0  0  0  0  0
    1.3962    2.5174    0.1911 O   0  0  0  0  0  0  0  0  0  0  0  0
    1.0244    3.7992    0.7526 C   0  0  0  0  0  0  0  0  0  0  0  0
    2.2992    4.5284    1.1238 C   0  0  0  0  0  0  0  0  0  0  0  0
   -0.4713   -0.5788   -1.2782 S   0  0  0  0  0  0  0  0  0  0  0  0
   -1.9069   -0.1881    0.2224 P   0  0  0  0  0  0  0  0  0  0  0  0
   -1.4967    0.1292    2.1260 S   0  0  0  0  0  0  0  0  0  0  0  0
   -3.1423    0.6445   -0.3572 O   0  0  0  0  0  0  0  0  0  0  0  0
   -3.4908    1.9878   -0.0234 C   0  0  0  0  0  0  0  0  0  0  0  0
   -2.5150   -1.6633    0.0082 O   0  0  0  0  0  0  0  0  0  0  0  0
   -3.6403   -2.1210    0.7608 C   0  0  0  0  0  0  0  0  0  0  0  0
    4.9745   -3.8341   -2.3066 H   0  0  0  0  0  0  0  0  0  0  0  0
    5.0362   -2.0658   -2.2385 H   0  0  0  0  0  0  0  0  0  0  0  0
    4.8762   -3.0079   -0.7471 H   0  0  0  0  0  0  0  0  0  0  0  0
    2.6215   -3.7717   -1.4374 H   0  0  0  0  0  0  0  0  0  0  0  0
    2.7723   -2.8610   -2.9741 H   0  0  0  0  0  0  0  0  0  0  0  0
    2.6065    0.2417    0.7050 H   0  0  0  0  0  0  0  0  0  0  0  0
    1.1292   -0.5305    1.3025 H   0  0  0  0  0  0  0  0  0  0  0  0
    0.4461    4.3449    0.0019 H   0  0  0  0  0  0  0  0  0  0  0  0
    0.3855    3.6169    1.6217 H   0  0  0  0  0  0  0  0  0  0  0  0
    2.9244    4.6566    0.2457 H   0  0  0  0  0  0  0  0  0  0  0  0
    2.0466    5.5024    1.5290 H   0  0  0  0  0  0  0  0  0  0  0  0
    2.8503    3.9649    1.8703 H   0  0  0  0  0  0  0  0  0  0  0  0
   -3.0316    2.6702   -0.7351 H   0  0  0  0  0  0  0  0  0  0  0  0
   -3.1513    2.2243    0.9859 H   0  0  0  0  0  0  0  0  0  0  0  0
   -4.5760    2.0360   -0.0833 H   0  0  0  0  0  0  0  0  0  0  0  0
   -3.4995   -1.8964    1.8206 H   0  0  0  0  0  0  0  0  0  0  0  0
   -3.6819   -3.1961    0.6051 H   0  0  0  0  0  0  0  0  0  0  0  0
   -4.5512   -1.6445    0.3995 H   0  0  0  0  0  0  0  0  0  0  0  0
  1  2  1  0  0  0  0
  2  3  1  0  0  0  0
  3  4  1  0  0  0  0
  4  5  2  0  0  0  0
  4  6  1  0  0  0  0
  6  7  1  0  0  0  0
  7  8  1  0  0  0  0
  7  9  1  0  0  0  0
  9 10  2  0  0  0  0
  9 11  4  0  0  0  0
 11 12  1  0  0  0  0
 12 13  1  0  0  0  0
  7 14  1  0  0  0  0
 14 15  1  0  0  0  0
 15 16  2  0  0  0  0
 15 17  2  0  0  0  0
 17 18  1  0  0  0  0
 15 19  1  0  0  0  0
 19 20  1  0  0  0  0
  1 21  1  0  0  0  0
  1 22  1  0  0  0  0
  1 23  1  0  0  0  0
  2 24  1  0  0  0  0
  2 25  1  0  0  0  0
  6 26  1  0  0  0  0
  6 27  1  0  0  0  0
 12 28  1  0  0  0  0
 12 29  1  0  0  0  0
 13 30  1  0  0  0  0
 13 31  1  0  0  0  0
 13 32  1  0  0  0  0
 18 33  1  0  0  0  0
 18 34  1  0  0  0  0
 18 35  1  0  0  0  0
 20 36  1  0  0  0  0
 20 37  1  0  0  0  0
 20 38  1  0  0  0  0
M  END
