 xtb: 6.7.1 (edcfbbe)
          04092505213D

 41 40  0     0  0            999 V2000
    4.7166    1.0711   -1.8897 C   0  0  0  0  0  0  0  0  0  0  0  0
    4.1533   -0.0523   -1.0439 C   0  0  0  0  0  0  0  0  0  0  0  0
    3.2438    0.5331   -0.0733 O   0  0  0  0  0  0  0  0  0  0  0  0
    2.1316   -0.2898    0.6803 P   0  0  0  0  0  0  0  0  0  0  0  0
    1.3621    0.8062    2.1052 S   0  0  0  0  0  0  0  0  0  0  0  0
    2.9315   -1.5842    1.1471 O   0  0  0  0  0  0  0  0  0  0  0  0
    2.3362   -2.8483    1.4917 C   0  0  0  0  0  0  0  0  0  0  0  0
    1.1811   -2.7077    2.4604 C   0  0  0  0  0  0  0  0  0  0  0  0
    0.8942   -1.1069   -0.8754 S   0  0  0  0  0  0  0  0  0  0  0  0
    0.5390    0.4091   -1.7994 C   0  0  0  0  0  0  0  0  0  0  0  0
   -0.3718    1.6602   -0.8491 S   0  0  0  0  0  0  0  0  0  0  0  0
   -2.0428    0.4503   -0.3963 P   0  0  0  0  0  0  0  0  0  0  0  0
   -2.6355   -0.7433   -1.8398 S   0  0  0  0  0  0  0  0  0  0  0  0
   -3.1608    1.4509    0.1248 O   0  0  0  0  0  0  0  0  0  0  0  0
   -4.1275    2.0421   -0.7622 C   0  0  0  0  0  0  0  0  0  0  0  0
   -3.4989    3.0714   -1.6785 C   0  0  0  0  0  0  0  0  0  0  0  0
   -1.5379   -0.2034    0.9553 O   0  0  0  0  0  0  0  0  0  0  0  0
   -2.3962   -0.7531    1.9781 C   0  0  0  0  0  0  0  0  0  0  0  0
   -2.9778   -2.0900    1.5654 C   0  0  0  0  0  0  0  0  0  0  0  0
    5.2193    1.7954   -1.2553 H   0  0  0  0  0  0  0  0  0  0  0  0
    5.4274    0.6592   -2.5988 H   0  0  0  0  0  0  0  0  0  0  0  0
    3.9241    1.5792   -2.4328 H   0  0  0  0  0  0  0  0  0  0  0  0
    4.9391   -0.5658   -0.4876 H   0  0  0  0  0  0  0  0  0  0  0  0
    3.6067   -0.7821   -1.6483 H   0  0  0  0  0  0  0  0  0  0  0  0
    2.0062   -3.3293    0.5661 H   0  0  0  0  0  0  0  0  0  0  0  0
    3.1614   -3.4121    1.9301 H   0  0  0  0  0  0  0  0  0  0  0  0
    0.3811   -2.1310    1.9966 H   0  0  0  0  0  0  0  0  0  0  0  0
    0.8053   -3.6913    2.7237 H   0  0  0  0  0  0  0  0  0  0  0  0
    1.5009   -2.1872    3.3602 H   0  0  0  0  0  0  0  0  0  0  0  0
   -0.0613    0.0917   -2.6524 H   0  0  0  0  0  0  0  0  0  0  0  0
    1.4622    0.8851   -2.1203 H   0  0  0  0  0  0  0  0  0  0  0  0
   -4.5948    1.2420   -1.3455 H   0  0  0  0  0  0  0  0  0  0  0  0
   -4.8596    2.4918   -0.0903 H   0  0  0  0  0  0  0  0  0  0  0  0
   -2.8180    2.5829   -2.3742 H   0  0  0  0  0  0  0  0  0  0  0  0
   -4.2781    3.5747   -2.2418 H   0  0  0  0  0  0  0  0  0  0  0  0
   -2.9409    3.8026   -1.0987 H   0  0  0  0  0  0  0  0  0  0  0  0
   -1.7332   -0.8453    2.8412 H   0  0  0  0  0  0  0  0  0  0  0  0
   -3.1824   -0.0279    2.1986 H   0  0  0  0  0  0  0  0  0  0  0  0
   -2.1835   -2.7788    1.2876 H   0  0  0  0  0  0  0  0  0  0  0  0
   -3.5411   -2.5060    2.3945 H   0  0  0  0  0  0  0  0  0  0  0  0
   -3.6399   -1.9658    0.7100 H   0  0  0  0  0  0  0  0  0  0  0  0
  1  2  1  0  0  0  0
  2  3  1  0  0  0  0
  3  4  2  0  0  0  0
  4  5  2  0  0  0  0
  4  6  2  0  0  0  0
  6  7  1  0  0  0  0
  7  8  1  0  0  0  0
  4  9  1  0  0  0  0
  9 10  1  0  0  0  0
 10 11  1  0  0  0  0
 11 12  1  0  0  0  0
 12 13  2  0  0  0  0
 12 14  2  0  0  0  0
 14 15  1  0  0  0  0
 15 16  1  0  0  0  0
 12 17  2  0  0  0  0
 17 18  1  0  0  0  0
 18 19  1  0  0  0  0
  1 20  1  0  0  0  0
  1 21  1  0  0  0  0
  1 22  1  0  0  0  0
  2 23  1  0  0  0  0
  2 24  1  0  0  0  0
  7 25  1  0  0  0  0
  7 26  1  0  0  0  0
  8 27  1  0  0  0  0
  8 28  1  0  0  0  0
  8 29  1  0  0  0  0
 10 30  1  0  0  0  0
 10 31  1  0  0  0  0
 15 32  1  0  0  0  0
 15 33  1  0  0  0  0
 16 34  1  0  0  0  0
 16 35  1  0  0  0  0
 16 36  1  0  0  0  0
 18 37  1  0  0  0  0
 18 38  1  0  0  0  0
 19 39  1  0  0  0  0
 19 40  1  0  0  0  0
 19 41  1  0  0  0  0
M  END
