 xtb: 6.7.1 (edcfbbe)
          04092505203D

 41 40  0     0  0            999 V2000
    5.4672   -1.8279   -1.8119 C   0  0  0  0  0  0  0  0  0  0  0  0
    4.3643   -0.7897   -1.7585 C   0  0  0  0  0  0  0  0  0  0  0  0
    3.3380   -1.2738   -0.8691 O   0  0  0  0  0  0  0  0  0  0  0  0
    2.3545   -0.2949   -0.0953 P   0  0  0  0  0  0  0  0  0  0  0  0
    3.2360    1.2451    0.7455 S   0  0  0  0  0  0  0  0  0  0  0  0
    1.6094   -1.3075    0.8629 O   0  0  0  0  0  0  0  0  0  0  0  0
    2.0694   -1.5737    2.2128 C   0  0  0  0  0  0  0  0  0  0  0  0
    1.2347   -0.8024    3.2144 C   0  0  0  0  0  0  0  0  0  0  0  0
    0.8502    0.1352   -1.5131 S   0  0  0  0  0  0  0  0  0  0  0  0
    0.1300    1.5377   -0.6103 C   0  0  0  0  0  0  0  0  0  0  0  0
   -0.8906    1.0185    0.7830 S   0  0  0  0  0  0  0  0  0  0  0  0
   -2.5147    0.2647   -0.3828 P   0  0  0  0  0  0  0  0  0  0  0  0
   -2.8399    1.1745   -2.0845 S   0  0  0  0  0  0  0  0  0  0  0  0
   -3.7520    0.2575    0.6145 O   0  0  0  0  0  0  0  0  0  0  0  0
   -4.6265    1.3888    0.7674 C   0  0  0  0  0  0  0  0  0  0  0  0
   -3.9310    2.5732    1.4072 C   0  0  0  0  0  0  0  0  0  0  0  0
   -2.2339   -1.2696   -0.6094 O   0  0  0  0  0  0  0  0  0  0  0  0
   -1.6771   -2.2157    0.3345 C   0  0  0  0  0  0  0  0  0  0  0  0
   -2.4033   -2.2242    1.6621 C   0  0  0  0  0  0  0  0  0  0  0  0
    5.9076   -1.9577   -0.8274 H   0  0  0  0  0  0  0  0  0  0  0  0
    5.0635   -2.7793   -2.1460 H   0  0  0  0  0  0  0  0  0  0  0  0
    6.2330   -1.4976   -2.5060 H   0  0  0  0  0  0  0  0  0  0  0  0
    3.9127   -0.6348   -2.7417 H   0  0  0  0  0  0  0  0  0  0  0  0
    4.7350    0.1684   -1.3780 H   0  0  0  0  0  0  0  0  0  0  0  0
    1.9572   -2.6517    2.3361 H   0  0  0  0  0  0  0  0  0  0  0  0
    3.1248   -1.3008    2.2919 H   0  0  0  0  0  0  0  0  0  0  0  0
    0.1835   -1.0495    3.1005 H   0  0  0  0  0  0  0  0  0  0  0  0
    1.5592   -1.0560    4.2183 H   0  0  0  0  0  0  0  0  0  0  0  0
    1.3579    0.2676    3.0598 H   0  0  0  0  0  0  0  0  0  0  0  0
   -0.4849    2.0833   -1.3268 H   0  0  0  0  0  0  0  0  0  0  0  0
    0.9318    2.1600   -0.2116 H   0  0  0  0  0  0  0  0  0  0  0  0
   -5.0169    1.6597   -0.2186 H   0  0  0  0  0  0  0  0  0  0  0  0
   -5.4339    1.0090    1.3949 H   0  0  0  0  0  0  0  0  0  0  0  0
   -3.1820    2.9774    0.7279 H   0  0  0  0  0  0  0  0  0  0  0  0
   -4.6632    3.3456    1.6196 H   0  0  0  0  0  0  0  0  0  0  0  0
   -3.4429    2.2742    2.3312 H   0  0  0  0  0  0  0  0  0  0  0  0
   -1.7757   -3.1697   -0.1860 H   0  0  0  0  0  0  0  0  0  0  0  0
   -0.6173   -1.9813    0.4662 H   0  0  0  0  0  0  0  0  0  0  0  0
   -3.4644   -2.4030    1.5092 H   0  0  0  0  0  0  0  0  0  0  0  0
   -1.9920   -3.0127    2.2853 H   0  0  0  0  0  0  0  0  0  0  0  0
   -2.2796   -1.2672    2.1660 H   0  0  0  0  0  0  0  0  0  0  0  0
  1  2  1  0  0  0  0
  2  3  1  0  0  0  0
  3  4  2  0  0  0  0
  4  5  2  0  0  0  0
  4  6  2  0  0  0  0
  6  7  1  0  0  0  0
  7  8  1  0  0  0  0
  4  9  1  0  0  0  0
  9 10  1  0  0  0  0
 10 11  1  0  0  0  0
 11 12  1  0  0  0  0
 12 13  2  0  0  0  0
 12 14  2  0  0  0  0
 14 15  1  0  0  0  0
 15 16  1  0  0  0  0
 12 17  2  0  0  0  0
 17 18  1  0  0  0  0
 18 19  1  0  0  0  0
  1 20  1  0  0  0  0
  1 21  1  0  0  0  0
  1 22  1  0  0  0  0
  2 23  1  0  0  0  0
  2 24  1  0  0  0  0
  7 25  1  0  0  0  0
  7 26  1  0  0  0  0
  8 27  1  0  0  0  0
  8 28  1  0  0  0  0
  8 29  1  0  0  0  0
 10 30  1  0  0  0  0
 10 31  1  0  0  0  0
 15 32  1  0  0  0  0
 15 33  1  0  0  0  0
 16 34  1  0  0  0  0
 16 35  1  0  0  0  0
 16 36  1  0  0  0  0
 18 37  1  0  0  0  0
 18 38  1  0  0  0  0
 19 39  1  0  0  0  0
 19 40  1  0  0  0  0
 19 41  1  0  0  0  0
M  END
