 xtb: 6.7.1 (edcfbbe)
          04092505213D

 41 40  0     0  0            999 V2000
    4.5467   -1.6526    1.0381 C   0  0  0  0  0  0  0  0  0  0  0  0
    4.0556   -1.8731   -0.3758 C   0  0  0  0  0  0  0  0  0  0  0  0
    3.6743   -0.6420   -1.0398 O   0  0  0  0  0  0  0  0  0  0  0  0
    2.6017    0.4048   -0.5472 P   0  0  0  0  0  0  0  0  0  0  0  0
    2.1220    1.6210   -2.0043 S   0  0  0  0  0  0  0  0  0  0  0  0
    3.3021    1.0865    0.7046 O   0  0  0  0  0  0  0  0  0  0  0  0
    2.9025    2.3662    1.2217 C   0  0  0  0  0  0  0  0  0  0  0  0
    1.5657    2.3013    1.9318 C   0  0  0  0  0  0  0  0  0  0  0  0
    1.0295   -0.7730    0.2691 S   0  0  0  0  0  0  0  0  0  0  0  0
    0.0963   -0.9641   -1.2889 C   0  0  0  0  0  0  0  0  0  0  0  0
   -1.5381   -1.6429   -0.9875 S   0  0  0  0  0  0  0  0  0  0  0  0
   -2.4774    0.0767   -0.1201 P   0  0  0  0  0  0  0  0  0  0  0  0
   -1.5225    1.7649   -0.3991 S   0  0  0  0  0  0  0  0  0  0  0  0
   -2.7582   -0.3128    1.3953 O   0  0  0  0  0  0  0  0  0  0  0  0
   -1.7354   -0.2841    2.4098 C   0  0  0  0  0  0  0  0  0  0  0  0
   -2.4224   -0.3712    3.7574 C   0  0  0  0  0  0  0  0  0  0  0  0
   -3.9279    0.1224   -0.7235 O   0  0  0  0  0  0  0  0  0  0  0  0
   -5.0286   -0.7399   -0.3363 C   0  0  0  0  0  0  0  0  0  0  0  0
   -4.7471   -2.2002   -0.6156 C   0  0  0  0  0  0  0  0  0  0  0  0
    4.9188   -2.5928    1.4333 H   0  0  0  0  0  0  0  0  0  0  0  0
    5.3450   -0.9154    1.0493 H   0  0  0  0  0  0  0  0  0  0  0  0
    3.7323   -1.2998    1.6673 H   0  0  0  0  0  0  0  0  0  0  0  0
    3.1956   -2.5481   -0.3839 H   0  0  0  0  0  0  0  0  0  0  0  0
    4.8421   -2.2665   -1.0214 H   0  0  0  0  0  0  0  0  0  0  0  0
    3.7092    2.6318    1.9066 H   0  0  0  0  0  0  0  0  0  0  0  0
    2.8643    3.0824    0.3945 H   0  0  0  0  0  0  0  0  0  0  0  0
    1.3820    3.2438    2.4376 H   0  0  0  0  0  0  0  0  0  0  0  0
    0.7659    2.1373    1.2100 H   0  0  0  0  0  0  0  0  0  0  0  0
    1.5638    1.4933    2.6592 H   0  0  0  0  0  0  0  0  0  0  0  0
    0.6106   -1.6663   -1.9413 H   0  0  0  0  0  0  0  0  0  0  0  0
    0.0126    0.0207   -1.7565 H   0  0  0  0  0  0  0  0  0  0  0  0
   -1.0608   -1.1296    2.2462 H   0  0  0  0  0  0  0  0  0  0  0  0
   -1.1684    0.6463    2.3063 H   0  0  0  0  0  0  0  0  0  0  0  0
   -2.9971   -1.2902    3.8239 H   0  0  0  0  0  0  0  0  0  0  0  0
   -1.6707   -0.3605    4.5393 H   0  0  0  0  0  0  0  0  0  0  0  0
   -3.0907    0.4747    3.8913 H   0  0  0  0  0  0  0  0  0  0  0  0
   -5.2327   -0.5742    0.7227 H   0  0  0  0  0  0  0  0  0  0  0  0
   -5.8571   -0.3658   -0.9396 H   0  0  0  0  0  0  0  0  0  0  0  0
   -4.4838   -2.3443   -1.6602 H   0  0  0  0  0  0  0  0  0  0  0  0
   -3.9231   -2.5527    0.0023 H   0  0  0  0  0  0  0  0  0  0  0  0
   -5.6347   -2.7818   -0.3867 H   0  0  0  0  0  0  0  0  0  0  0  0
  1  2  1  0  0  0  0
  2  3  1  0  0  0  0
  3  4  2  0  0  0  0
  4  5  2  0  0  0  0
  4  6  2  0  0  0  0
  6  7  1  0  0  0  0
  7  8  1  0  0  0  0
  4  9  1  0  0  0  0
  9 10  1  0  0  0  0
 10 11  1  0  0  0  0
 11 12  1  0  0  0  0
 12 13  2  0  0  0  0
 12 14  2  0  0  0  0
 14 15  1  0  0  0  0
 15 16  1  0  0  0  0
 12 17  2  0  0  0  0
 17 18  1  0  0  0  0
 18 19  1  0  0  0  0
  1 20  1  0  0  0  0
  1 21  1  0  0  0  0
  1 22  1  0  0  0  0
  2 23  1  0  0  0  0
  2 24  1  0  0  0  0
  7 25  1  0  0  0  0
  7 26  1  0  0  0  0
  8 27  1  0  0  0  0
  8 28  1  0  0  0  0
  8 29  1  0  0  0  0
 10 30  1  0  0  0  0
 10 31  1  0  0  0  0
 15 32  1  0  0  0  0
 15 33  1  0  0  0  0
 16 34  1  0  0  0  0
 16 35  1  0  0  0  0
 16 36  1  0  0  0  0
 18 37  1  0  0  0  0
 18 38  1  0  0  0  0
 19 39  1  0  0  0  0
 19 40  1  0  0  0  0
 19 41  1  0  0  0  0
M  END
