 xtb: 6.7.1 (edcfbbe)
          04092505213D

 41 40  0     0  0            999 V2000
    3.8121    1.7567   -1.3466 C   0  0  0  0  0  0  0  0  0  0  0  0
    4.1167    1.1768    0.0197 C   0  0  0  0  0  0  0  0  0  0  0  0
    3.3653   -0.0191    0.2631 O   0  0  0  0  0  0  0  0  0  0  0  0
    1.7710    0.0002    0.4152 P   0  0  0  0  0  0  0  0  0  0  0  0
    1.2303    1.5419    1.5197 S   0  0  0  0  0  0  0  0  0  0  0  0
    1.5226   -1.4363    1.0422 O   0  0  0  0  0  0  0  0  0  0  0  0
    1.9760   -1.7032    2.3900 C   0  0  0  0  0  0  0  0  0  0  0  0
    1.5232   -3.0972    2.7704 C   0  0  0  0  0  0  0  0  0  0  0  0
    1.1843   -0.3787   -1.5878 S   0  0  0  0  0  0  0  0  0  0  0  0
   -0.0625   -1.6931   -1.4771 C   0  0  0  0  0  0  0  0  0  0  0  0
   -1.7838   -1.1674   -1.7812 S   0  0  0  0  0  0  0  0  0  0  0  0
   -1.9813    0.2918   -0.2614 P   0  0  0  0  0  0  0  0  0  0  0  0
   -3.7980    0.8939    0.1343 S   0  0  0  0  0  0  0  0  0  0  0  0
   -0.9533    1.4422   -0.6398 O   0  0  0  0  0  0  0  0  0  0  0  0
   -1.3313    2.5616   -1.4597 C   0  0  0  0  0  0  0  0  0  0  0  0
   -1.4507    2.1770   -2.9215 C   0  0  0  0  0  0  0  0  0  0  0  0
   -1.1551   -0.3300    0.9521 O   0  0  0  0  0  0  0  0  0  0  0  0
   -1.8384   -0.9936    2.0329 C   0  0  0  0  0  0  0  0  0  0  0  0
   -2.3571   -2.3580    1.6232 C   0  0  0  0  0  0  0  0  0  0  0  0
    3.9962    1.0187   -2.1229 H   0  0  0  0  0  0  0  0  0  0  0  0
    2.7625    2.0523   -1.3880 H   0  0  0  0  0  0  0  0  0  0  0  0
    4.4316    2.6307   -1.5190 H   0  0  0  0  0  0  0  0  0  0  0  0
    3.8790    1.9006    0.8069 H   0  0  0  0  0  0  0  0  0  0  0  0
    5.1572    0.8613    0.1053 H   0  0  0  0  0  0  0  0  0  0  0  0
    3.0658   -1.6213    2.4016 H   0  0  0  0  0  0  0  0  0  0  0  0
    1.5595   -0.9377    3.0536 H   0  0  0  0  0  0  0  0  0  0  0  0
    0.4388   -3.1611    2.7714 H   0  0  0  0  0  0  0  0  0  0  0  0
    1.9211   -3.8206    2.0644 H   0  0  0  0  0  0  0  0  0  0  0  0
    1.8926   -3.3273    3.7645 H   0  0  0  0  0  0  0  0  0  0  0  0
    0.0162   -2.1715   -0.5062 H   0  0  0  0  0  0  0  0  0  0  0  0
    0.1564   -2.3905   -2.2822 H   0  0  0  0  0  0  0  0  0  0  0  0
   -2.2767    2.9646   -1.0812 H   0  0  0  0  0  0  0  0  0  0  0  0
   -0.5330    3.2873   -1.2933 H   0  0  0  0  0  0  0  0  0  0  0  0
   -0.5404    1.6856   -3.2580 H   0  0  0  0  0  0  0  0  0  0  0  0
   -2.2925    1.4999   -3.0628 H   0  0  0  0  0  0  0  0  0  0  0  0
   -1.6159    3.0728   -3.5114 H   0  0  0  0  0  0  0  0  0  0  0  0
   -1.0880   -1.0561    2.8229 H   0  0  0  0  0  0  0  0  0  0  0  0
   -2.6619   -0.3536    2.3650 H   0  0  0  0  0  0  0  0  0  0  0  0
   -1.5511   -2.9834    1.2466 H   0  0  0  0  0  0  0  0  0  0  0  0
   -2.8106   -2.8384    2.4846 H   0  0  0  0  0  0  0  0  0  0  0  0
   -3.1114   -2.2466    0.8446 H   0  0  0  0  0  0  0  0  0  0  0  0
  1  2  1  0  0  0  0
  2  3  1  0  0  0  0
  3  4  1  0  0  0  0
  4  5  2  0  0  0  0
  4  6  1  0  0  0  0
  6  7  1  0  0  0  0
  7  8  1  0  0  0  0
  4  9  1  0  0  0  0
  9 10  1  0  0  0  0
 10 11  1  0  0  0  0
 11 12  1  0  0  0  0
 12 13  2  0  0  0  0
 12 14  2  0  0  0  0
 14 15  1  0  0  0  0
 15 16  1  0  0  0  0
 12 17  1  0  0  0  0
 17 18  1  0  0  0  0
 18 19  1  0  0  0  0
  1 20  1  0  0  0  0
  1 21  1  0  0  0  0
  1 22  1  0  0  0  0
  2 23  1  0  0  0  0
  2 24  1  0  0  0  0
  7 25  1  0  0  0  0
  7 26  1  0  0  0  0
  8 27  1  0  0  0  0
  8 28  1  0  0  0  0
  8 29  1  0  0  0  0
 10 30  1  0  0  0  0
 10 31  1  0  0  0  0
 15 32  1  0  0  0  0
 15 33  1  0  0  0  0
 16 34  1  0  0  0  0
 16 35  1  0  0  0  0
 16 36  1  0  0  0  0
 18 37  1  0  0  0  0
 18 38  1  0  0  0  0
 19 39  1  0  0  0  0
 19 40  1  0  0  0  0
 19 41  1  0  0  0  0
M  END
