 xtb: 6.7.1 (edcfbbe)
          04092505203D

 41 40  0     0  0            999 V2000
    2.7169   -0.0531    3.3706 C   0  0  0  0  0  0  0  0  0  0  0  0
    1.4093   -0.3778    2.6793 C   0  0  0  0  0  0  0  0  0  0  0  0
    1.3265    0.2466    1.3837 O   0  0  0  0  0  0  0  0  0  0  0  0
    2.1971   -0.2339    0.1517 P   0  0  0  0  0  0  0  0  0  0  0  0
    2.7439   -2.1191    0.1411 S   0  0  0  0  0  0  0  0  0  0  0  0
    3.3892    0.8160    0.1868 O   0  0  0  0  0  0  0  0  0  0  0  0
    4.6104    0.6239   -0.5490 C   0  0  0  0  0  0  0  0  0  0  0  0
    4.4002    0.7361   -2.0452 C   0  0  0  0  0  0  0  0  0  0  0  0
    0.9713    0.4243   -1.4381 S   0  0  0  0  0  0  0  0  0  0  0  0
   -0.0014   -1.0995   -1.5931 C   0  0  0  0  0  0  0  0  0  0  0  0
   -0.9722   -1.4939   -0.1118 S   0  0  0  0  0  0  0  0  0  0  0  0
   -2.1967    0.2270   -0.1618 P   0  0  0  0  0  0  0  0  0  0  0  0
   -2.7455    0.8850   -1.9278 S   0  0  0  0  0  0  0  0  0  0  0  0
   -1.3242    1.2086    0.7224 O   0  0  0  0  0  0  0  0  0  0  0  0
   -1.4089    2.6415    0.5993 C   0  0  0  0  0  0  0  0  0  0  0  0
   -2.7158    3.1709    1.1511 C   0  0  0  0  0  0  0  0  0  0  0  0
   -3.3876   -0.1115    0.8342 O   0  0  0  0  0  0  0  0  0  0  0  0
   -4.6098   -0.7306    0.3954 C   0  0  0  0  0  0  0  0  0  0  0  0
   -4.4005   -2.1684   -0.0342 C   0  0  0  0  0  0  0  0  0  0  0  0
    2.7061   -0.4650    4.3749 H   0  0  0  0  0  0  0  0  0  0  0  0
    3.5450   -0.4930    2.8159 H   0  0  0  0  0  0  0  0  0  0  0  0
    2.8594    1.0232    3.4197 H   0  0  0  0  0  0  0  0  0  0  0  0
    0.5490    0.0221    3.2181 H   0  0  0  0  0  0  0  0  0  0  0  0
    1.2937   -1.4594    2.5517 H   0  0  0  0  0  0  0  0  0  0  0  0
    5.2680    1.4092   -0.1738 H   0  0  0  0  0  0  0  0  0  0  0  0
    5.0171   -0.3593   -0.2914 H   0  0  0  0  0  0  0  0  0  0  0  0
    5.3624    0.7066   -2.5464 H   0  0  0  0  0  0  0  0  0  0  0  0
    3.7916   -0.0946   -2.4001 H   0  0  0  0  0  0  0  0  0  0  0  0
    3.8941    1.6673   -2.2875 H   0  0  0  0  0  0  0  0  0  0  0  0
    0.6655   -1.9456   -1.7549 H   0  0  0  0  0  0  0  0  0  0  0  0
   -0.6696   -0.9501   -2.4405 H   0  0  0  0  0  0  0  0  0  0  0  0
   -0.5478    3.0040    1.1626 H   0  0  0  0  0  0  0  0  0  0  0  0
   -1.2959    2.9067   -0.4574 H   0  0  0  0  0  0  0  0  0  0  0  0
   -3.5448    2.8085    0.5441 H   0  0  0  0  0  0  0  0  0  0  0  0
   -2.8562    2.8335    2.1747 H   0  0  0  0  0  0  0  0  0  0  0  0
   -2.7059    4.2560    1.1238 H   0  0  0  0  0  0  0  0  0  0  0  0
   -5.2650   -0.6605    1.2647 H   0  0  0  0  0  0  0  0  0  0  0  0
   -5.0188   -0.1393   -0.4301 H   0  0  0  0  0  0  0  0  0  0  0  0
   -3.8918   -2.7269    0.7477 H   0  0  0  0  0  0  0  0  0  0  0  0
   -5.3631   -2.6264   -0.2378 H   0  0  0  0  0  0  0  0  0  0  0  0
   -3.7944   -2.2033   -0.9386 H   0  0  0  0  0  0  0  0  0  0  0  0
  1  2  1  0  0  0  0
  2  3  1  0  0  0  0
  3  4  2  0  0  0  0
  4  5  2  0  0  0  0
  4  6  2  0  0  0  0
  6  7  1  0  0  0  0
  7  8  1  0  0  0  0
  4  9  1  0  0  0  0
  9 10  1  0  0  0  0
 10 11  1  0  0  0  0
 11 12  1  0  0  0  0
 12 13  2  0  0  0  0
 12 14  2  0  0  0  0
 14 15  1  0  0  0  0
 15 16  1  0  0  0  0
 12 17  2  0  0  0  0
 17 18  1  0  0  0  0
 18 19  1  0  0  0  0
  1 20  1  0  0  0  0
  1 21  1  0  0  0  0
  1 22  1  0  0  0  0
  2 23  1  0  0  0  0
  2 24  1  0  0  0  0
  7 25  1  0  0  0  0
  7 26  1  0  0  0  0
  8 27  1  0  0  0  0
  8 28  1  0  0  0  0
  8 29  1  0  0  0  0
 10 30  1  0  0  0  0
 10 31  1  0  0  0  0
 15 32  1  0  0  0  0
 15 33  1  0  0  0  0
 16 34  1  0  0  0  0
 16 35  1  0  0  0  0
 16 36  1  0  0  0  0
 18 37  1  0  0  0  0
 18 38  1  0  0  0  0
 19 39  1  0  0  0  0
 19 40  1  0  0  0  0
 19 41  1  0  0  0  0
M  END
