 xtb: 6.7.1 (edcfbbe)
          04092507313D

 38 37  0     0  0            999 V2000
    5.0464   -3.2676   -0.0833 C   0  0  0  0  0  0  0  0  0  0  0  0
    4.2889   -2.0235    0.3356 C   0  0  0  0  0  0  0  0  0  0  0  0
    3.0829   -1.9517   -0.4533 O   0  0  0  0  0  0  0  0  0  0  0  0
    2.3337   -0.8819   -0.3405 C   0  0  0  0  0  0  0  0  0  0  0  0
    2.6028    0.0703    0.3678 O   0  0  0  0  0  0  0  0  0  0  0  0
    1.0767   -0.9799   -1.1695 C   0  0  0  0  0  0  0  0  0  0  0  0
    0.4225    0.3890   -1.3388 C   0  0  0  0  0  0  0  0  0  0  0  0
    0.8066    0.9168   -2.2130 H   0  0  0  0  0  0  0  0  0  0  0  0
    0.5867    1.2773   -0.1178 C   0  0  0  0  0  0  0  0  0  0  0  0
   -0.0220    1.0686    0.9175 O   0  0  0  0  0  0  0  0  0  0  0  0
    1.2941    2.3429   -0.3723 O   0  0  0  0  0  0  0  0  0  0  0  0
    1.5337    3.2776    0.7003 C   0  0  0  0  0  0  0  0  0  0  0  0
    1.9121    4.6117    0.0877 C   0  0  0  0  0  0  0  0  0  0  0  0
   -1.3751    0.2462   -1.5831 S   0  0  0  0  0  0  0  0  0  0  0  0
   -2.0887   -0.3186    0.3540 P   0  0  0  0  0  0  0  0  0  0  0  0
   -1.1823   -1.7001    1.4136 S   0  0  0  0  0  0  0  0  0  0  0  0
   -2.5836    0.9666    1.1377 O   0  0  0  0  0  0  0  0  0  0  0  0
   -3.5623    1.8678    0.5849 C   0  0  0  0  0  0  0  0  0  0  0  0
   -3.5293   -0.8503   -0.1350 O   0  0  0  0  0  0  0  0  0  0  0  0
   -3.6822   -2.0991   -0.8133 C   0  0  0  0  0  0  0  0  0  0  0  0
    5.3050   -3.2103   -1.1361 H   0  0  0  0  0  0  0  0  0  0  0  0
    5.9536   -3.3491    0.5058 H   0  0  0  0  0  0  0  0  0  0  0  0
    4.4316   -4.1474    0.0805 H   0  0  0  0  0  0  0  0  0  0  0  0
    4.8680   -1.1112    0.1623 H   0  0  0  0  0  0  0  0  0  0  0  0
    4.0035   -2.0557    1.3916 H   0  0  0  0  0  0  0  0  0  0  0  0
    0.4147   -1.6529   -0.6099 H   0  0  0  0  0  0  0  0  0  0  0  0
    1.2883   -1.4423   -2.1321 H   0  0  0  0  0  0  0  0  0  0  0  0
    0.6284    3.3412    1.3124 H   0  0  0  0  0  0  0  0  0  0  0  0
    2.3406    2.8631    1.3120 H   0  0  0  0  0  0  0  0  0  0  0  0
    1.0978    4.9896   -0.5233 H   0  0  0  0  0  0  0  0  0  0  0  0
    2.1231    5.3202    0.8816 H   0  0  0  0  0  0  0  0  0  0  0  0
    2.7946    4.4949   -0.5337 H   0  0  0  0  0  0  0  0  0  0  0  0
   -3.2955    2.1355   -0.4381 H   0  0  0  0  0  0  0  0  0  0  0  0
   -3.5391    2.7413    1.2318 H   0  0  0  0  0  0  0  0  0  0  0  0
   -4.5438    1.3975    0.6006 H   0  0  0  0  0  0  0  0  0  0  0  0
   -4.7444   -2.3263   -0.7743 H   0  0  0  0  0  0  0  0  0  0  0  0
   -3.1079   -2.8740   -0.3022 H   0  0  0  0  0  0  0  0  0  0  0  0
   -3.3467   -2.0030   -1.8454 H   0  0  0  0  0  0  0  0  0  0  0  0
  1  2  1  0  0  0  0
  2  3  1  0  0  0  0
  3  4  4  0  0  0  0
  4  5  2  0  0  0  0
  4  6  1  0  0  0  0
  6  7  1  0  0  0  0
  7  8  1  0  0  0  0
  7  9  1  0  0  0  0
  9 10  2  0  0  0  0
  9 11  4  0  0  0  0
 11 12  1  0  0  0  0
 12 13  1  0  0  0  0
  7 14  1  0  0  0  0
 14 15  1  0  0  0  0
 15 16  2  0  0  0  0
 15 17  2  0  0  0  0
 17 18  1  0  0  0  0
 15 19  1  0  0  0  0
 19 20  1  0  0  0  0
  1 21  1  0  0  0  0
  1 22  1  0  0  0  0
  1 23  1  0  0  0  0
  2 24  1  0  0  0  0
  2 25  1  0  0  0  0
  6 26  1  0  0  0  0
  6 27  1  0  0  0  0
 12 28  1  0  0  0  0
 12 29  1  0  0  0  0
 13 30  1  0  0  0  0
 13 31  1  0  0  0  0
 13 32  1  0  0  0  0
 18 33  1  0  0  0  0
 18 34  1  0  0  0  0
 18 35  1  0  0  0  0
 20 36  1  0  0  0  0
 20 37  1  0  0  0  0
 20 38  1  0  0  0  0
M  END
