 xtb: 6.7.1 (edcfbbe)
          04092505213D

 41 40  0     0  0            999 V2000
    5.8945   -0.1745   -1.3628 C   0  0  0  0  0  0  0  0  0  0  0  0
    4.4794   -0.1728   -1.9076 C   0  0  0  0  0  0  0  0  0  0  0  0
    3.6447   -1.0470   -1.1213 O   0  0  0  0  0  0  0  0  0  0  0  0
    2.6306   -0.4802   -0.0493 P   0  0  0  0  0  0  0  0  0  0  0  0
    3.2518    1.0902    0.9546 S   0  0  0  0  0  0  0  0  0  0  0  0
    2.4490   -1.8477    0.7241 O   0  0  0  0  0  0  0  0  0  0  0  0
    1.3295   -2.1573    1.5706 C   0  0  0  0  0  0  0  0  0  0  0  0
    1.3016   -1.3079    2.8270 C   0  0  0  0  0  0  0  0  0  0  0  0
    0.8225   -0.1849   -1.1554 S   0  0  0  0  0  0  0  0  0  0  0  0
    0.2039    1.3150   -0.3384 C   0  0  0  0  0  0  0  0  0  0  0  0
   -1.0376    0.9686    0.9256 S   0  0  0  0  0  0  0  0  0  0  0  0
   -2.5599    0.2445   -0.3897 P   0  0  0  0  0  0  0  0  0  0  0  0
   -2.4373    0.8980   -2.2338 S   0  0  0  0  0  0  0  0  0  0  0  0
   -3.9338    0.5538    0.3466 O   0  0  0  0  0  0  0  0  0  0  0  0
   -4.6364    1.7972    0.1724 C   0  0  0  0  0  0  0  0  0  0  0  0
   -3.8776    2.9739    0.7505 C   0  0  0  0  0  0  0  0  0  0  0  0
   -2.4810   -1.3318   -0.3068 O   0  0  0  0  0  0  0  0  0  0  0  0
   -3.1405   -2.1539    0.6892 C   0  0  0  0  0  0  0  0  0  0  0  0
   -2.6947   -1.8385    2.1014 C   0  0  0  0  0  0  0  0  0  0  0  0
    6.5281    0.4266   -2.0068 H   0  0  0  0  0  0  0  0  0  0  0  0
    5.9068    0.2449   -0.3590 H   0  0  0  0  0  0  0  0  0  0  0  0
    6.2762   -1.1905   -1.3238 H   0  0  0  0  0  0  0  0  0  0  0  0
    4.4398   -0.5749   -2.9216 H   0  0  0  0  0  0  0  0  0  0  0  0
    4.0632    0.8394   -1.8995 H   0  0  0  0  0  0  0  0  0  0  0  0
    0.4101   -2.0337    0.9873 H   0  0  0  0  0  0  0  0  0  0  0  0
    1.4719   -3.2136    1.8066 H   0  0  0  0  0  0  0  0  0  0  0  0
    2.2718   -1.3394    3.3164 H   0  0  0  0  0  0  0  0  0  0  0  0
    1.0675   -0.2718    2.5862 H   0  0  0  0  0  0  0  0  0  0  0  0
    0.5471   -1.6885    3.5083 H   0  0  0  0  0  0  0  0  0  0  0  0
   -0.2399    1.9324   -1.1181 H   0  0  0  0  0  0  0  0  0  0  0  0
    1.0347    1.8239    0.1564 H   0  0  0  0  0  0  0  0  0  0  0  0
   -4.8168    1.9446   -0.8968 H   0  0  0  0  0  0  0  0  0  0  0  0
   -5.5822    1.6341    0.6909 H   0  0  0  0  0  0  0  0  0  0  0  0
   -2.9764    3.1586    0.1679 H   0  0  0  0  0  0  0  0  0  0  0  0
   -4.5057    3.8581    0.7111 H   0  0  0  0  0  0  0  0  0  0  0  0
   -3.5955    2.7769    1.7816 H   0  0  0  0  0  0  0  0  0  0  0  0
   -4.2179   -2.0155    0.5819 H   0  0  0  0  0  0  0  0  0  0  0  0
   -2.8656   -3.1680    0.3948 H   0  0  0  0  0  0  0  0  0  0  0  0
   -1.6208   -1.9662    2.2030 H   0  0  0  0  0  0  0  0  0  0  0  0
   -2.9504   -0.8123    2.3569 H   0  0  0  0  0  0  0  0  0  0  0  0
   -3.2002   -2.5113    2.7872 H   0  0  0  0  0  0  0  0  0  0  0  0
  1  2  1  0  0  0  0
  2  3  1  0  0  0  0
  3  4  2  0  0  0  0
  4  5  2  0  0  0  0
  4  6  2  0  0  0  0
  6  7  1  0  0  0  0
  7  8  1  0  0  0  0
  4  9  1  0  0  0  0
  9 10  1  0  0  0  0
 10 11  1  0  0  0  0
 11 12  1  0  0  0  0
 12 13  2  0  0  0  0
 12 14  2  0  0  0  0
 14 15  1  0  0  0  0
 15 16  1  0  0  0  0
 12 17  2  0  0  0  0
 17 18  1  0  0  0  0
 18 19  1  0  0  0  0
  1 20  1  0  0  0  0
  1 21  1  0  0  0  0
  1 22  1  0  0  0  0
  2 23  1  0  0  0  0
  2 24  1  0  0  0  0
  7 25  1  0  0  0  0
  7 26  1  0  0  0  0
  8 27  1  0  0  0  0
  8 28  1  0  0  0  0
  8 29  1  0  0  0  0
 10 30  1  0  0  0  0
 10 31  1  0  0  0  0
 15 32  1  0  0  0  0
 15 33  1  0  0  0  0
 16 34  1  0  0  0  0
 16 35  1  0  0  0  0
 16 36  1  0  0  0  0
 18 37  1  0  0  0  0
 18 38  1  0  0  0  0
 19 39  1  0  0  0  0
 19 40  1  0  0  0  0
 19 41  1  0  0  0  0
M  END
