 xtb: 6.7.1 (edcfbbe)
          04092505213D

 41 40  0     0  0            999 V2000
    5.0733   -2.3650   -1.6689 C   0  0  0  0  0  0  0  0  0  0  0  0
    4.0522   -1.2512   -1.7837 C   0  0  0  0  0  0  0  0  0  0  0  0
    3.0314   -1.4783   -0.7910 O   0  0  0  0  0  0  0  0  0  0  0  0
    2.1047   -0.3058   -0.2450 P   0  0  0  0  0  0  0  0  0  0  0  0
    3.0825    1.3327    0.2204 S   0  0  0  0  0  0  0  0  0  0  0  0
    1.3411   -1.0571    0.9175 O   0  0  0  0  0  0  0  0  0  0  0  0
    1.8220   -1.0741    2.2815 C   0  0  0  0  0  0  0  0  0  0  0  0
    1.0327   -0.0988    3.1317 C   0  0  0  0  0  0  0  0  0  0  0  0
    0.6061   -0.1561   -1.7168 S   0  0  0  0  0  0  0  0  0  0  0  0
    0.0132    1.5052   -1.2866 C   0  0  0  0  0  0  0  0  0  0  0  0
   -0.5665    1.6312    0.4213 S   0  0  0  0  0  0  0  0  0  0  0  0
   -2.2318    0.3434    0.2556 P   0  0  0  0  0  0  0  0  0  0  0  0
   -3.1763    0.2962   -1.4662 S   0  0  0  0  0  0  0  0  0  0  0  0
   -3.0936    0.7147    1.5405 O   0  0  0  0  0  0  0  0  0  0  0  0
   -3.5306    2.0342    1.9167 C   0  0  0  0  0  0  0  0  0  0  0  0
   -4.2147    2.7784    0.7890 C   0  0  0  0  0  0  0  0  0  0  0  0
   -1.6575   -1.0549    0.7303 O   0  0  0  0  0  0  0  0  0  0  0  0
   -2.1921   -2.3284    0.3093 C   0  0  0  0  0  0  0  0  0  0  0  0
   -1.2874   -2.9810   -0.7173 C   0  0  0  0  0  0  0  0  0  0  0  0
    4.5893   -3.3266   -1.8125 H   0  0  0  0  0  0  0  0  0  0  0  0
    5.8356   -2.2278   -2.4287 H   0  0  0  0  0  0  0  0  0  0  0  0
    5.5384   -2.3474   -0.6872 H   0  0  0  0  0  0  0  0  0  0  0  0
    3.5737   -1.2475   -2.7664 H   0  0  0  0  0  0  0  0  0  0  0  0
    4.5054   -0.2711   -1.6001 H   0  0  0  0  0  0  0  0  0  0  0  0
    1.6782   -2.1031    2.6148 H   0  0  0  0  0  0  0  0  0  0  0  0
    2.8876   -0.8283    2.2919 H   0  0  0  0  0  0  0  0  0  0  0  0
    1.3244   -0.2112    4.1710 H   0  0  0  0  0  0  0  0  0  0  0  0
    1.2296    0.9230    2.8134 H   0  0  0  0  0  0  0  0  0  0  0  0
   -0.0321   -0.2963    3.0304 H   0  0  0  0  0  0  0  0  0  0  0  0
   -0.8047    1.7220   -1.9735 H   0  0  0  0  0  0  0  0  0  0  0  0
    0.8252    2.2239   -1.3881 H   0  0  0  0  0  0  0  0  0  0  0  0
   -4.2161    1.8492    2.7458 H   0  0  0  0  0  0  0  0  0  0  0  0
   -2.6588    2.5896    2.2736 H   0  0  0  0  0  0  0  0  0  0  0  0
   -5.0331    2.1874    0.3846 H   0  0  0  0  0  0  0  0  0  0  0  0
   -4.6026    3.7202    1.1639 H   0  0  0  0  0  0  0  0  0  0  0  0
   -3.5064    2.9812   -0.0131 H   0  0  0  0  0  0  0  0  0  0  0  0
   -2.2503   -2.9211    1.2236 H   0  0  0  0  0  0  0  0  0  0  0  0
   -3.1963   -2.1805   -0.0986 H   0  0  0  0  0  0  0  0  0  0  0  0
   -0.2640   -3.0065   -0.3507 H   0  0  0  0  0  0  0  0  0  0  0  0
   -1.6308   -3.9937   -0.9022 H   0  0  0  0  0  0  0  0  0  0  0  0
   -1.3094   -2.4212   -1.6500 H   0  0  0  0  0  0  0  0  0  0  0  0
  1  2  1  0  0  0  0
  2  3  1  0  0  0  0
  3  4  2  0  0  0  0
  4  5  2  0  0  0  0
  4  6  2  0  0  0  0
  6  7  1  0  0  0  0
  7  8  1  0  0  0  0
  4  9  1  0  0  0  0
  9 10  1  0  0  0  0
 10 11  1  0  0  0  0
 11 12  1  0  0  0  0
 12 13  2  0  0  0  0
 12 14  2  0  0  0  0
 14 15  1  0  0  0  0
 15 16  1  0  0  0  0
 12 17  2  0  0  0  0
 17 18  1  0  0  0  0
 18 19  1  0  0  0  0
  1 20  1  0  0  0  0
  1 21  1  0  0  0  0
  1 22  1  0  0  0  0
  2 23  1  0  0  0  0
  2 24  1  0  0  0  0
  7 25  1  0  0  0  0
  7 26  1  0  0  0  0
  8 27  1  0  0  0  0
  8 28  1  0  0  0  0
  8 29  1  0  0  0  0
 10 30  1  0  0  0  0
 10 31  1  0  0  0  0
 15 32  1  0  0  0  0
 15 33  1  0  0  0  0
 16 34  1  0  0  0  0
 16 35  1  0  0  0  0
 16 36  1  0  0  0  0
 18 37  1  0  0  0  0
 18 38  1  0  0  0  0
 19 39  1  0  0  0  0
 19 40  1  0  0  0  0
 19 41  1  0  0  0  0
M  END
