 xtb: 6.7.1 (edcfbbe)
          04092505213D

 41 40  0     0  0            999 V2000
    4.9482   -1.6057   -0.7470 C   0  0  0  0  0  0  0  0  0  0  0  0
    4.4405   -0.5074   -1.6574 C   0  0  0  0  0  0  0  0  0  0  0  0
    3.0441   -0.2221   -1.4338 O   0  0  0  0  0  0  0  0  0  0  0  0
    2.5352    0.4401   -0.0821 P   0  0  0  0  0  0  0  0  0  0  0  0
    3.7435    1.7317    0.7577 S   0  0  0  0  0  0  0  0  0  0  0  0
    2.1990   -0.8487    0.7979 O   0  0  0  0  0  0  0  0  0  0  0  0
    2.1350   -0.8009    2.2311 C   0  0  0  0  0  0  0  0  0  0  0  0
    0.9838    0.0492    2.7286 C   0  0  0  0  0  0  0  0  0  0  0  0
    0.6803    1.1710   -0.7770 S   0  0  0  0  0  0  0  0  0  0  0  0
    0.0164   -0.3735   -1.4789 C   0  0  0  0  0  0  0  0  0  0  0  0
   -0.7941   -1.4419   -0.2632 S   0  0  0  0  0  0  0  0  0  0  0  0
   -2.5055   -0.2436   -0.0126 P   0  0  0  0  0  0  0  0  0  0  0  0
   -3.2519    0.6125   -1.6178 S   0  0  0  0  0  0  0  0  0  0  0  0
   -1.9921    0.7096    1.1442 O   0  0  0  0  0  0  0  0  0  0  0  0
   -2.6896    1.9193    1.5163 C   0  0  0  0  0  0  0  0  0  0  0  0
   -2.0616    3.1239    0.8438 C   0  0  0  0  0  0  0  0  0  0  0  0
   -3.5461   -1.1474    0.7829 O   0  0  0  0  0  0  0  0  0  0  0  0
   -4.5072   -1.9859    0.1181 C   0  0  0  0  0  0  0  0  0  0  0  0
   -3.8472   -3.1460   -0.5988 C   0  0  0  0  0  0  0  0  0  0  0  0
    5.9649   -1.8626   -1.0276 H   0  0  0  0  0  0  0  0  0  0  0  0
    4.9439   -1.2611    0.2862 H   0  0  0  0  0  0  0  0  0  0  0  0
    4.3159   -2.4860   -0.8278 H   0  0  0  0  0  0  0  0  0  0  0  0
    4.4812   -0.7984   -2.7079 H   0  0  0  0  0  0  0  0  0  0  0  0
    5.0096    0.4148   -1.5042 H   0  0  0  0  0  0  0  0  0  0  0  0
    2.0221   -1.8453    2.5245 H   0  0  0  0  0  0  0  0  0  0  0  0
    3.0844   -0.4036    2.6048 H   0  0  0  0  0  0  0  0  0  0  0  0
    0.9612    0.0261    3.8134 H   0  0  0  0  0  0  0  0  0  0  0  0
    1.1202    1.0802    2.4005 H   0  0  0  0  0  0  0  0  0  0  0  0
    0.0363   -0.3184    2.3425 H   0  0  0  0  0  0  0  0  0  0  0  0
    0.8240   -0.9435   -1.9271 H   0  0  0  0  0  0  0  0  0  0  0  0
   -0.7178   -0.0669   -2.2249 H   0  0  0  0  0  0  0  0  0  0  0  0
   -3.7451    1.8260    1.2461 H   0  0  0  0  0  0  0  0  0  0  0  0
   -2.5916    1.9715    2.6016 H   0  0  0  0  0  0  0  0  0  0  0  0
   -2.5511    4.0268    1.1941 H   0  0  0  0  0  0  0  0  0  0  0  0
   -1.0010    3.1739    1.0752 H   0  0  0  0  0  0  0  0  0  0  0  0
   -2.1729    3.0543   -0.2362 H   0  0  0  0  0  0  0  0  0  0  0  0
   -5.1595   -2.3262    0.9234 H   0  0  0  0  0  0  0  0  0  0  0  0
   -5.0746   -1.3700   -0.5870 H   0  0  0  0  0  0  0  0  0  0  0  0
   -3.1963   -3.6890    0.0817 H   0  0  0  0  0  0  0  0  0  0  0  0
   -4.6119   -3.8154   -0.9795 H   0  0  0  0  0  0  0  0  0  0  0  0
   -3.2527   -2.7774   -1.4338 H   0  0  0  0  0  0  0  0  0  0  0  0
  1  2  1  0  0  0  0
  2  3  1  0  0  0  0
  3  4  2  0  0  0  0
  4  5  2  0  0  0  0
  4  6  2  0  0  0  0
  6  7  1  0  0  0  0
  7  8  1  0  0  0  0
  4  9  1  0  0  0  0
  9 10  1  0  0  0  0
 10 11  1  0  0  0  0
 11 12  1  0  0  0  0
 12 13  2  0  0  0  0
 12 14  2  0  0  0  0
 14 15  1  0  0  0  0
 15 16  1  0  0  0  0
 12 17  2  0  0  0  0
 17 18  1  0  0  0  0
 18 19  1  0  0  0  0
  1 20  1  0  0  0  0
  1 21  1  0  0  0  0
  1 22  1  0  0  0  0
  2 23  1  0  0  0  0
  2 24  1  0  0  0  0
  7 25  1  0  0  0  0
  7 26  1  0  0  0  0
  8 27  1  0  0  0  0
  8 28  1  0  0  0  0
  8 29  1  0  0  0  0
 10 30  1  0  0  0  0
 10 31  1  0  0  0  0
 15 32  1  0  0  0  0
 15 33  1  0  0  0  0
 16 34  1  0  0  0  0
 16 35  1  0  0  0  0
 16 36  1  0  0  0  0
 18 37  1  0  0  0  0
 18 38  1  0  0  0  0
 19 39  1  0  0  0  0
 19 40  1  0  0  0  0
 19 41  1  0  0  0  0
M  END
