 xtb: 6.7.1 (edcfbbe)
          04092505213D

 41 40  0     0  0            999 V2000
    1.3786   -2.1168    1.9827 C   0  0  0  0  0  0  0  0  0  0  0  0
    2.8652   -1.9265    1.7640 C   0  0  0  0  0  0  0  0  0  0  0  0
    3.1804   -0.6053    1.2888 O   0  0  0  0  0  0  0  0  0  0  0  0
    2.7930   -0.0976   -0.1705 P   0  0  0  0  0  0  0  0  0  0  0  0
    2.9796   -1.4107   -1.6057 S   0  0  0  0  0  0  0  0  0  0  0  0
    3.7727    1.1239   -0.3442 O   0  0  0  0  0  0  0  0  0  0  0  0
    3.8668    2.1897    0.6362 C   0  0  0  0  0  0  0  0  0  0  0  0
    4.5389    3.3711   -0.0309 C   0  0  0  0  0  0  0  0  0  0  0  0
    0.8692    0.8373    0.0325 S   0  0  0  0  0  0  0  0  0  0  0  0
   -0.0299   -0.0320   -1.2762 C   0  0  0  0  0  0  0  0  0  0  0  0
   -1.2415   -1.2110   -0.6371 S   0  0  0  0  0  0  0  0  0  0  0  0
   -2.7295    0.2463   -0.1720 P   0  0  0  0  0  0  0  0  0  0  0  0
   -2.9960    1.6440   -1.5133 S   0  0  0  0  0  0  0  0  0  0  0  0
   -2.3049    0.8495    1.2187 O   0  0  0  0  0  0  0  0  0  0  0  0
   -2.0968    0.0414    2.4070 C   0  0  0  0  0  0  0  0  0  0  0  0
   -1.1496    0.7959    3.3166 C   0  0  0  0  0  0  0  0  0  0  0  0
   -4.0056   -0.6197    0.2147 O   0  0  0  0  0  0  0  0  0  0  0  0
   -4.9704   -1.0707   -0.7534 C   0  0  0  0  0  0  0  0  0  0  0  0
   -4.3778   -2.0483   -1.7472 C   0  0  0  0  0  0  0  0  0  0  0  0
    0.9884   -1.3274    2.6198 H   0  0  0  0  0  0  0  0  0  0  0  0
    0.8540   -2.1014    1.0277 H   0  0  0  0  0  0  0  0  0  0  0  0
    1.2070   -3.0785    2.4555 H   0  0  0  0  0  0  0  0  0  0  0  0
    3.2459   -2.6542    1.0408 H   0  0  0  0  0  0  0  0  0  0  0  0
    3.4226   -2.0047    2.6985 H   0  0  0  0  0  0  0  0  0  0  0  0
    2.8569    2.4409    0.9739 H   0  0  0  0  0  0  0  0  0  0  0  0
    4.4490    1.8161    1.4804 H   0  0  0  0  0  0  0  0  0  0  0  0
    5.5191    3.0817   -0.3986 H   0  0  0  0  0  0  0  0  0  0  0  0
    3.9408    3.7189   -0.8686 H   0  0  0  0  0  0  0  0  0  0  0  0
    4.6468    4.1743    0.6908 H   0  0  0  0  0  0  0  0  0  0  0  0
    0.6835   -0.5961   -1.8816 H   0  0  0  0  0  0  0  0  0  0  0  0
   -0.5560    0.7149   -1.8722 H   0  0  0  0  0  0  0  0  0  0  0  0
   -3.0709   -0.1123    2.8745 H   0  0  0  0  0  0  0  0  0  0  0  0
   -1.6848   -0.9261    2.1049 H   0  0  0  0  0  0  0  0  0  0  0  0
   -1.5774    1.7581    3.5822 H   0  0  0  0  0  0  0  0  0  0  0  0
   -0.9813    0.2152    4.2180 H   0  0  0  0  0  0  0  0  0  0  0  0
   -0.2040    0.9690    2.8086 H   0  0  0  0  0  0  0  0  0  0  0  0
   -5.7475   -1.5357   -0.1450 H   0  0  0  0  0  0  0  0  0  0  0  0
   -5.3750   -0.1950   -1.2699 H   0  0  0  0  0  0  0  0  0  0  0  0
   -5.1712   -2.4540   -2.3667 H   0  0  0  0  0  0  0  0  0  0  0  0
   -3.6583   -1.5400   -2.3876 H   0  0  0  0  0  0  0  0  0  0  0  0
   -3.8738   -2.8597   -1.2278 H   0  0  0  0  0  0  0  0  0  0  0  0
  1  2  1  0  0  0  0
  2  3  1  0  0  0  0
  3  4  2  0  0  0  0
  4  5  2  0  0  0  0
  4  6  2  0  0  0  0
  6  7  1  0  0  0  0
  7  8  1  0  0  0  0
  4  9  1  0  0  0  0
  9 10  1  0  0  0  0
 10 11  1  0  0  0  0
 11 12  1  0  0  0  0
 12 13  2  0  0  0  0
 12 14  2  0  0  0  0
 14 15  1  0  0  0  0
 15 16  1  0  0  0  0
 12 17  2  0  0  0  0
 17 18  1  0  0  0  0
 18 19  1  0  0  0  0
  1 20  1  0  0  0  0
  1 21  1  0  0  0  0
  1 22  1  0  0  0  0
  2 23  1  0  0  0  0
  2 24  1  0  0  0  0
  7 25  1  0  0  0  0
  7 26  1  0  0  0  0
  8 27  1  0  0  0  0
  8 28  1  0  0  0  0
  8 29  1  0  0  0  0
 10 30  1  0  0  0  0
 10 31  1  0  0  0  0
 15 32  1  0  0  0  0
 15 33  1  0  0  0  0
 16 34  1  0  0  0  0
 16 35  1  0  0  0  0
 16 36  1  0  0  0  0
 18 37  1  0  0  0  0
 18 38  1  0  0  0  0
 19 39  1  0  0  0  0
 19 40  1  0  0  0  0
 19 41  1  0  0  0  0
M  END
