 xtb: 6.7.1 (edcfbbe)
          04032519443D

 12 11  0     0  0            999 V2000
   -1.7661    0.6794   -0.0010 C   0  0  0  0  0  0  0  0  0  0  0  0
   -0.4700   -0.0952    0.0017 C   0  0  0  0  0  0  0  0  0  0  0  0
   -0.4447   -1.3256   -0.0001 O   0  0  0  0  0  0  0  0  0  0  0  0
    0.6441    0.6490    0.0015 N   0  0  0  0  0  0  0  0  0  0  0  0
    1.9762    0.0887   -0.0009 C   0  0  0  0  0  0  0  0  0  0  0  0
   -2.3079    0.4457   -0.9145 H   0  0  0  0  0  0  0  0  0  0  0  0
   -2.3744    0.3430    0.8349 H   0  0  0  0  0  0  0  0  0  0  0  0
   -1.6055    1.7494    0.0666 H   0  0  0  0  0  0  0  0  0  0  0  0
    0.5712    1.6544   -0.0005 H   0  0  0  0  0  0  0  0  0  0  0  0
    2.5194    0.4041   -0.8916 H   0  0  0  0  0  0  0  0  0  0  0  0
    1.8809   -0.9958   -0.0011 H   0  0  0  0  0  0  0  0  0  0  0  0
    2.5210    0.4036    0.8889 H   0  0  0  0  0  0  0  0  0  0  0  0
  1  2  1  0  0  0  0
  2  3  2  0  0  0  0
  2  4  4  0  0  0  0
  4  5  1  0  0  0  0
  1  6  1  0  0  0  0
  1  7  1  0  0  0  0
  1  8  1  0  0  0  0
  4  9  1  0  0  0  0
  5 10  1  0  0  0  0
  5 11  1  0  0  0  0
  5 12  1  0  0  0  0
M  END
