 xtb: 6.7.1 (edcfbbe)
          04092505213D

 41 40  0     0  0            999 V2000
    4.7061    1.0943   -1.8742 C   0  0  0  0  0  0  0  0  0  0  0  0
    4.1416   -0.0365   -1.0393 C   0  0  0  0  0  0  0  0  0  0  0  0
    3.2257    0.5404   -0.0697 O   0  0  0  0  0  0  0  0  0  0  0  0
    2.1222   -0.2940    0.6841 P   0  0  0  0  0  0  0  0  0  0  0  0
    1.3464    0.7915    2.1136 S   0  0  0  0  0  0  0  0  0  0  0  0
    2.9350   -1.5819    1.1475 O   0  0  0  0  0  0  0  0  0  0  0  0
    2.3518   -2.8526    1.4885 C   0  0  0  0  0  0  0  0  0  0  0  0
    1.1972   -2.7262    2.4597 C   0  0  0  0  0  0  0  0  0  0  0  0
    0.8900   -1.1210   -0.8711 S   0  0  0  0  0  0  0  0  0  0  0  0
    0.5366    0.3884   -1.8067 C   0  0  0  0  0  0  0  0  0  0  0  0
   -0.3619    1.6525   -0.8620 S   0  0  0  0  0  0  0  0  0  0  0  0
   -2.0407    0.4576   -0.3992 P   0  0  0  0  0  0  0  0  0  0  0  0
   -2.6468   -0.7397   -1.8343 S   0  0  0  0  0  0  0  0  0  0  0  0
   -3.1500    1.4689    0.1201 O   0  0  0  0  0  0  0  0  0  0  0  0
   -4.1160    2.0613   -0.7669 C   0  0  0  0  0  0  0  0  0  0  0  0
   -3.4824    3.0731   -1.6989 C   0  0  0  0  0  0  0  0  0  0  0  0
   -1.5352   -0.1919    0.9538 O   0  0  0  0  0  0  0  0  0  0  0  0
   -2.3910   -0.7446    1.9771 C   0  0  0  0  0  0  0  0  0  0  0  0
   -2.9560   -2.0907    1.5709 C   0  0  0  0  0  0  0  0  0  0  0  0
    5.4193    0.6890   -2.5847 H   0  0  0  0  0  0  0  0  0  0  0  0
    3.9146    1.6062   -2.4152 H   0  0  0  0  0  0  0  0  0  0  0  0
    5.2062    1.8139   -1.2325 H   0  0  0  0  0  0  0  0  0  0  0  0
    4.9258   -0.5520   -0.4827 H   0  0  0  0  0  0  0  0  0  0  0  0
    3.6000   -0.7636   -1.6514 H   0  0  0  0  0  0  0  0  0  0  0  0
    2.0246   -3.3332    0.5617 H   0  0  0  0  0  0  0  0  0  0  0  0
    3.1829   -3.4104    1.9234 H   0  0  0  0  0  0  0  0  0  0  0  0
    0.3914   -2.1542    2.0000 H   0  0  0  0  0  0  0  0  0  0  0  0
    0.8303   -3.7142    2.7192 H   0  0  0  0  0  0  0  0  0  0  0  0
    1.5141   -2.2071    3.3613 H   0  0  0  0  0  0  0  0  0  0  0  0
   -0.0707    0.0662   -2.6530 H   0  0  0  0  0  0  0  0  0  0  0  0
    1.4600    0.8568   -2.1380 H   0  0  0  0  0  0  0  0  0  0  0  0
   -4.5962    1.2601   -1.3381 H   0  0  0  0  0  0  0  0  0  0  0  0
   -4.8383    2.5266   -0.0950 H   0  0  0  0  0  0  0  0  0  0  0  0
   -2.8107    2.5692   -2.3928 H   0  0  0  0  0  0  0  0  0  0  0  0
   -4.2596    3.5777   -2.2637 H   0  0  0  0  0  0  0  0  0  0  0  0
   -2.9132    3.8054   -1.1314 H   0  0  0  0  0  0  0  0  0  0  0  0
   -1.7296   -0.8239    2.8428 H   0  0  0  0  0  0  0  0  0  0  0  0
   -3.1860   -0.0267    2.1905 H   0  0  0  0  0  0  0  0  0  0  0  0
   -2.1529   -2.7710    1.2973 H   0  0  0  0  0  0  0  0  0  0  0  0
   -3.5143   -2.5093    2.4021 H   0  0  0  0  0  0  0  0  0  0  0  0
   -3.6192   -1.9795    0.7148 H   0  0  0  0  0  0  0  0  0  0  0  0
  1  2  1  0  0  0  0
  2  3  1  0  0  0  0
  3  4  2  0  0  0  0
  4  5  2  0  0  0  0
  4  6  2  0  0  0  0
  6  7  1  0  0  0  0
  7  8  1  0  0  0  0
  4  9  1  0  0  0  0
  9 10  1  0  0  0  0
 10 11  1  0  0  0  0
 11 12  1  0  0  0  0
 12 13  2  0  0  0  0
 12 14  2  0  0  0  0
 14 15  1  0  0  0  0
 15 16  1  0  0  0  0
 12 17  2  0  0  0  0
 17 18  1  0  0  0  0
 18 19  1  0  0  0  0
  1 20  1  0  0  0  0
  1 21  1  0  0  0  0
  1 22  1  0  0  0  0
  2 23  1  0  0  0  0
  2 24  1  0  0  0  0
  7 25  1  0  0  0  0
  7 26  1  0  0  0  0
  8 27  1  0  0  0  0
  8 28  1  0  0  0  0
  8 29  1  0  0  0  0
 10 30  1  0  0  0  0
 10 31  1  0  0  0  0
 15 32  1  0  0  0  0
 15 33  1  0  0  0  0
 16 34  1  0  0  0  0
 16 35  1  0  0  0  0
 16 36  1  0  0  0  0
 18 37  1  0  0  0  0
 18 38  1  0  0  0  0
 19 39  1  0  0  0  0
 19 40  1  0  0  0  0
 19 41  1  0  0  0  0
M  END
