 xtb: 6.7.1 (edcfbbe)
          04092505213D

 41 40  0     0  0            999 V2000
    5.0672   -1.4738   -0.5529 C   0  0  0  0  0  0  0  0  0  0  0  0
    4.5742   -0.3973   -1.4967 C   0  0  0  0  0  0  0  0  0  0  0  0
    3.1604   -0.1526   -1.3451 O   0  0  0  0  0  0  0  0  0  0  0  0
    2.5672    0.5089   -0.0281 P   0  0  0  0  0  0  0  0  0  0  0  0
    3.6946    1.8454    0.8517 S   0  0  0  0  0  0  0  0  0  0  0  0
    2.2228   -0.7791    0.8486 O   0  0  0  0  0  0  0  0  0  0  0  0
    2.0704   -0.7153    2.2750 C   0  0  0  0  0  0  0  0  0  0  0  0
    0.8883    0.1360    2.6911 C   0  0  0  0  0  0  0  0  0  0  0  0
    0.7247    1.1723   -0.8246 S   0  0  0  0  0  0  0  0  0  0  0  0
    0.1576   -0.3972   -1.5506 C   0  0  0  0  0  0  0  0  0  0  0  0
   -0.6888   -1.4807   -0.3722 S   0  0  0  0  0  0  0  0  0  0  0  0
   -2.4505   -0.3386   -0.2283 P   0  0  0  0  0  0  0  0  0  0  0  0
   -3.0914    0.4994   -1.8873 S   0  0  0  0  0  0  0  0  0  0  0  0
   -2.1122    0.6356    0.9680 O   0  0  0  0  0  0  0  0  0  0  0  0
   -2.7774    1.9025    1.1723 C   0  0  0  0  0  0  0  0  0  0  0  0
   -1.7493    2.9263    1.6079 C   0  0  0  0  0  0  0  0  0  0  0  0
   -3.4900   -1.3246    0.4594 O   0  0  0  0  0  0  0  0  0  0  0  0
   -4.1922   -2.3377   -0.2896 C   0  0  0  0  0  0  0  0  0  0  0  0
   -5.4275   -2.7266    0.4972 C   0  0  0  0  0  0  0  0  0  0  0  0
    6.1036   -1.7028   -0.7802 H   0  0  0  0  0  0  0  0  0  0  0  0
    5.0008   -1.1223    0.4758 H   0  0  0  0  0  0  0  0  0  0  0  0
    4.4655   -2.3729   -0.6578 H   0  0  0  0  0  0  0  0  0  0  0  0
    4.6760   -0.6941   -2.5415 H   0  0  0  0  0  0  0  0  0  0  0  0
    5.1075    0.5426   -1.3230 H   0  0  0  0  0  0  0  0  0  0  0  0
    1.9441   -1.7570    2.5726 H   0  0  0  0  0  0  0  0  0  0  0  0
    2.9936   -0.3096    2.7010 H   0  0  0  0  0  0  0  0  0  0  0  0
    0.7988    0.1233    3.7727 H   0  0  0  0  0  0  0  0  0  0  0  0
    1.0442    1.1636    2.3611 H   0  0  0  0  0  0  0  0  0  0  0  0
   -0.0332   -0.2382    2.2514 H   0  0  0  0  0  0  0  0  0  0  0  0
    1.0090   -0.9438   -1.9433 H   0  0  0  0  0  0  0  0  0  0  0  0
   -0.5419   -0.1239   -2.3416 H   0  0  0  0  0  0  0  0  0  0  0  0
   -3.2617    2.2014    0.2364 H   0  0  0  0  0  0  0  0  0  0  0  0
   -3.5375    1.7459    1.9404 H   0  0  0  0  0  0  0  0  0  0  0  0
   -2.2440    3.8782    1.7712 H   0  0  0  0  0  0  0  0  0  0  0  0
   -1.2705    2.6070    2.5290 H   0  0  0  0  0  0  0  0  0  0  0  0
   -0.9896    3.0457    0.8386 H   0  0  0  0  0  0  0  0  0  0  0  0
   -4.4539   -1.9274   -1.2709 H   0  0  0  0  0  0  0  0  0  0  0  0
   -3.5191   -3.1883   -0.4236 H   0  0  0  0  0  0  0  0  0  0  0  0
   -5.1408   -3.0907    1.4795 H   0  0  0  0  0  0  0  0  0  0  0  0
   -6.0808   -1.8669    0.6171 H   0  0  0  0  0  0  0  0  0  0  0  0
   -5.9583   -3.5081   -0.0363 H   0  0  0  0  0  0  0  0  0  0  0  0
  1  2  1  0  0  0  0
  2  3  1  0  0  0  0
  3  4  2  0  0  0  0
  4  5  2  0  0  0  0
  4  6  2  0  0  0  0
  6  7  1  0  0  0  0
  7  8  1  0  0  0  0
  4  9  1  0  0  0  0
  9 10  1  0  0  0  0
 10 11  1  0  0  0  0
 11 12  1  0  0  0  0
 12 13  2  0  0  0  0
 12 14  2  0  0  0  0
 14 15  1  0  0  0  0
 15 16  1  0  0  0  0
 12 17  2  0  0  0  0
 17 18  1  0  0  0  0
 18 19  1  0  0  0  0
  1 20  1  0  0  0  0
  1 21  1  0  0  0  0
  1 22  1  0  0  0  0
  2 23  1  0  0  0  0
  2 24  1  0  0  0  0
  7 25  1  0  0  0  0
  7 26  1  0  0  0  0
  8 27  1  0  0  0  0
  8 28  1  0  0  0  0
  8 29  1  0  0  0  0
 10 30  1  0  0  0  0
 10 31  1  0  0  0  0
 15 32  1  0  0  0  0
 15 33  1  0  0  0  0
 16 34  1  0  0  0  0
 16 35  1  0  0  0  0
 16 36  1  0  0  0  0
 18 37  1  0  0  0  0
 18 38  1  0  0  0  0
 19 39  1  0  0  0  0
 19 40  1  0  0  0  0
 19 41  1  0  0  0  0
M  END
