 xtb: 6.7.1 (edcfbbe)
          04032520393D

 22 22  0     0  0            999 V2000
    2.5026    0.1305   -0.7430 C   0  0  0  0  0  0  0  0  0  0  0  0
    1.4866   -0.1026    0.2602 N   0  0  0  0  0  0  0  0  0  0  0  0
    0.7353    1.0950    0.6301 C   0  0  0  0  0  0  0  0  0  0  0  0
   -0.6040    1.1945   -0.0960 C   0  0  0  0  0  0  0  0  0  0  0  0
   -1.4777    0.0996    0.3082 N   0  0  0  0  0  0  0  0  0  0  0  0
   -0.7151   -1.1015    0.6418 C   0  0  0  0  0  0  0  0  0  0  0  0
    0.6003   -1.1932   -0.1276 C   0  0  0  0  0  0  0  0  0  0  0  0
   -2.5247   -0.1234   -0.6650 C   0  0  0  0  0  0  0  0  0  0  0  0
    3.0508   -0.7972   -0.9019 H   0  0  0  0  0  0  0  0  0  0  0  0
    3.1963    0.8866   -0.3810 H   0  0  0  0  0  0  0  0  0  0  0  0
    2.0907    0.4589   -1.7117 H   0  0  0  0  0  0  0  0  0  0  0  0
    0.5492    1.0652    1.7080 H   0  0  0  0  0  0  0  0  0  0  0  0
    1.3395    1.9769    0.4145 H   0  0  0  0  0  0  0  0  0  0  0  0
   -1.1000    2.1379    0.1513 H   0  0  0  0  0  0  0  0  0  0  0  0
   -0.4222    1.1870   -1.1865 H   0  0  0  0  0  0  0  0  0  0  0  0
   -0.4948   -1.0826    1.7134 H   0  0  0  0  0  0  0  0  0  0  0  0
   -1.3260   -1.9813    0.4366 H   0  0  0  0  0  0  0  0  0  0  0  0
    1.1037   -2.1391    0.0937 H   0  0  0  0  0  0  0  0  0  0  0  0
    0.3839   -1.1742   -1.2116 H   0  0  0  0  0  0  0  0  0  0  0  0
   -2.1433   -0.4416   -1.6495 H   0  0  0  0  0  0  0  0  0  0  0  0
   -3.0775    0.8057   -0.7971 H   0  0  0  0  0  0  0  0  0  0  0  0
   -3.2067   -0.8834   -0.2893 H   0  0  0  0  0  0  0  0  0  0  0  0
  1  2  1  0  0  0  0
  2  3  1  0  0  0  0
  3  4  1  0  0  0  0
  4  5  1  0  0  0  0
  5  6  1  0  0  0  0
  2  7  1  0  0  0  0
  6  7  1  0  0  0  0
  5  8  1  0  0  0  0
  1  9  1  0  0  0  0
  1 10  1  0  0  0  0
  1 11  1  0  0  0  0
  3 12  1  0  0  0  0
  3 13  1  0  0  0  0
  4 14  1  0  0  0  0
  4 15  1  0  0  0  0
  6 16  1  0  0  0  0
  6 17  1  0  0  0  0
  7 18  1  0  0  0  0
  7 19  1  0  0  0  0
  8 20  1  0  0  0  0
  8 21  1  0  0  0  0
  8 22  1  0  0  0  0
M  END
