 xtb: 6.7.1 (edcfbbe)
          04092505213D

 41 40  0     0  0            999 V2000
    2.5817   -0.3987   -3.0285 C   0  0  0  0  0  0  0  0  0  0  0  0
    3.1684    0.5604   -2.0111 C   0  0  0  0  0  0  0  0  0  0  0  0
    2.2075    0.8656   -0.9694 O   0  0  0  0  0  0  0  0  0  0  0  0
    2.1361    0.1836    0.4462 P   0  0  0  0  0  0  0  0  0  0  0  0
    0.8106    1.1369    1.5302 S   0  0  0  0  0  0  0  0  0  0  0  0
    3.6446    0.2725    0.9313 O   0  0  0  0  0  0  0  0  0  0  0  0
    4.2334   -0.5315    1.9723 C   0  0  0  0  0  0  0  0  0  0  0  0
    3.4474   -0.4842    3.2652 C   0  0  0  0  0  0  0  0  0  0  0  0
    1.8873   -1.9172    0.1799 S   0  0  0  0  0  0  0  0  0  0  0  0
    0.2173   -1.9472   -0.5076 C   0  0  0  0  0  0  0  0  0  0  0  0
   -1.0867   -1.5754    0.7210 S   0  0  0  0  0  0  0  0  0  0  0  0
   -2.0106    0.0239   -0.2807 P   0  0  0  0  0  0  0  0  0  0  0  0
   -1.0349    0.9534   -1.7107 S   0  0  0  0  0  0  0  0  0  0  0  0
   -2.6722    0.9564    0.8197 O   0  0  0  0  0  0  0  0  0  0  0  0
   -2.2414    2.2750    1.1938 C   0  0  0  0  0  0  0  0  0  0  0  0
   -3.4566    3.1788    1.2476 C   0  0  0  0  0  0  0  0  0  0  0  0
   -3.2685   -0.7971   -0.7938 O   0  0  0  0  0  0  0  0  0  0  0  0
   -4.2724   -0.1883   -1.6352 C   0  0  0  0  0  0  0  0  0  0  0  0
   -5.0369   -1.2994   -2.3247 C   0  0  0  0  0  0  0  0  0  0  0  0
    2.4746   -1.3954   -2.6078 H   0  0  0  0  0  0  0  0  0  0  0  0
    1.6069   -0.0385   -3.3512 H   0  0  0  0  0  0  0  0  0  0  0  0
    3.2427   -0.4486   -3.8879 H   0  0  0  0  0  0  0  0  0  0  0  0
    3.3776    1.5314   -2.4628 H   0  0  0  0  0  0  0  0  0  0  0  0
    4.0753    0.1610   -1.5539 H   0  0  0  0  0  0  0  0  0  0  0  0
    4.3114   -1.5581    1.6043 H   0  0  0  0  0  0  0  0  0  0  0  0
    5.2289   -0.1011    2.0940 H   0  0  0  0  0  0  0  0  0  0  0  0
    2.4606   -0.9232    3.1219 H   0  0  0  0  0  0  0  0  0  0  0  0
    3.9759   -1.0446    4.0296 H   0  0  0  0  0  0  0  0  0  0  0  0
    3.3192    0.5445    3.5943 H   0  0  0  0  0  0  0  0  0  0  0  0
    0.0648   -2.9625   -0.8634 H   0  0  0  0  0  0  0  0  0  0  0  0
    0.1406   -1.2206   -1.3207 H   0  0  0  0  0  0  0  0  0  0  0  0
   -1.7504    2.1936    2.1663 H   0  0  0  0  0  0  0  0  0  0  0  0
   -1.5081    2.6329    0.4634 H   0  0  0  0  0  0  0  0  0  0  0  0
   -3.9030    3.2674    0.2601 H   0  0  0  0  0  0  0  0  0  0  0  0
   -4.1908    2.7696    1.9355 H   0  0  0  0  0  0  0  0  0  0  0  0
   -3.1492    4.1612    1.5905 H   0  0  0  0  0  0  0  0  0  0  0  0
   -4.9258    0.4152   -1.0003 H   0  0  0  0  0  0  0  0  0  0  0  0
   -3.7705    0.4641   -2.3585 H   0  0  0  0  0  0  0  0  0  0  0  0
   -5.4846   -1.9541   -1.5828 H   0  0  0  0  0  0  0  0  0  0  0  0
   -5.8165   -0.8656   -2.9424 H   0  0  0  0  0  0  0  0  0  0  0  0
   -4.3655   -1.8823   -2.9486 H   0  0  0  0  0  0  0  0  0  0  0  0
  1  2  1  0  0  0  0
  2  3  1  0  0  0  0
  3  4  2  0  0  0  0
  4  5  2  0  0  0  0
  4  6  2  0  0  0  0
  6  7  1  0  0  0  0
  7  8  1  0  0  0  0
  4  9  1  0  0  0  0
  9 10  1  0  0  0  0
 10 11  1  0  0  0  0
 11 12  1  0  0  0  0
 12 13  2  0  0  0  0
 12 14  2  0  0  0  0
 14 15  1  0  0  0  0
 15 16  1  0  0  0  0
 12 17  2  0  0  0  0
 17 18  1  0  0  0  0
 18 19  1  0  0  0  0
  1 20  1  0  0  0  0
  1 21  1  0  0  0  0
  1 22  1  0  0  0  0
  2 23  1  0  0  0  0
  2 24  1  0  0  0  0
  7 25  1  0  0  0  0
  7 26  1  0  0  0  0
  8 27  1  0  0  0  0
  8 28  1  0  0  0  0
  8 29  1  0  0  0  0
 10 30  1  0  0  0  0
 10 31  1  0  0  0  0
 15 32  1  0  0  0  0
 15 33  1  0  0  0  0
 16 34  1  0  0  0  0
 16 35  1  0  0  0  0
 16 36  1  0  0  0  0
 18 37  1  0  0  0  0
 18 38  1  0  0  0  0
 19 39  1  0  0  0  0
 19 40  1  0  0  0  0
 19 41  1  0  0  0  0
M  END
