 xtb: 6.7.1 (edcfbbe)
          04092505213D

 41 40  0     0  0            999 V2000
    5.3469    1.4023   -1.8580 C   0  0  0  0  0  0  0  0  0  0  0  0
    4.0076    0.6930   -1.8759 C   0  0  0  0  0  0  0  0  0  0  0  0
    3.7886    0.1190   -0.5723 O   0  0  0  0  0  0  0  0  0  0  0  0
    2.3352   -0.1068    0.0021 P   0  0  0  0  0  0  0  0  0  0  0  0
    1.1124    1.4097   -0.2779 S   0  0  0  0  0  0  0  0  0  0  0  0
    2.8119   -0.4389    1.4710 O   0  0  0  0  0  0  0  0  0  0  0  0
    2.0067   -1.0641    2.4867 C   0  0  0  0  0  0  0  0  0  0  0  0
    1.1162   -0.0609    3.1933 C   0  0  0  0  0  0  0  0  0  0  0  0
    1.7187   -1.9577   -0.8514 S   0  0  0  0  0  0  0  0  0  0  0  0
   -0.0428   -1.6491   -1.1162 C   0  0  0  0  0  0  0  0  0  0  0  0
   -0.9836   -1.5482    0.4484 S   0  0  0  0  0  0  0  0  0  0  0  0
   -2.1676    0.1553    0.0658 P   0  0  0  0  0  0  0  0  0  0  0  0
   -2.1524    0.8467   -1.7754 S   0  0  0  0  0  0  0  0  0  0  0  0
   -1.6864    1.0512    1.2791 O   0  0  0  0  0  0  0  0  0  0  0  0
   -2.3701    2.2337    1.7440 C   0  0  0  0  0  0  0  0  0  0  0  0
   -2.1815    3.4044    0.8004 C   0  0  0  0  0  0  0  0  0  0  0  0
   -3.6329   -0.2248    0.5685 O   0  0  0  0  0  0  0  0  0  0  0  0
   -4.6211   -0.7994   -0.3011 C   0  0  0  0  0  0  0  0  0  0  0  0
   -4.2495   -2.2032   -0.7337 C   0  0  0  0  0  0  0  0  0  0  0  0
    5.3328    2.2073   -1.1286 H   0  0  0  0  0  0  0  0  0  0  0  0
    6.1317    0.7005   -1.5917 H   0  0  0  0  0  0  0  0  0  0  0  0
    5.5465    1.8128   -2.8424 H   0  0  0  0  0  0  0  0  0  0  0  0
    3.9981   -0.1203   -2.6063 H   0  0  0  0  0  0  0  0  0  0  0  0
    3.1914    1.3896   -2.1007 H   0  0  0  0  0  0  0  0  0  0  0  0
    1.4118   -1.8670    2.0385 H   0  0  0  0  0  0  0  0  0  0  0  0
    2.7402   -1.4928    3.1722 H   0  0  0  0  0  0  0  0  0  0  0  0
    0.3900    0.3588    2.4995 H   0  0  0  0  0  0  0  0  0  0  0  0
    0.5842   -0.5592    3.9973 H   0  0  0  0  0  0  0  0  0  0  0  0
    1.7147    0.7496    3.6007 H   0  0  0  0  0  0  0  0  0  0  0  0
   -0.4006   -2.5016   -1.6879 H   0  0  0  0  0  0  0  0  0  0  0  0
   -0.1882   -0.7141   -1.6645 H   0  0  0  0  0  0  0  0  0  0  0  0
   -3.4284    1.9968    1.8784 H   0  0  0  0  0  0  0  0  0  0  0  0
   -1.9071    2.4295    2.7130 H   0  0  0  0  0  0  0  0  0  0  0  0
   -2.6914    3.2216   -0.1437 H   0  0  0  0  0  0  0  0  0  0  0  0
   -2.5841    4.3045    1.2537 H   0  0  0  0  0  0  0  0  0  0  0  0
   -1.1224    3.5452    0.5929 H   0  0  0  0  0  0  0  0  0  0  0  0
   -5.5342   -0.7885    0.2954 H   0  0  0  0  0  0  0  0  0  0  0  0
   -4.7349   -0.1475   -1.1732 H   0  0  0  0  0  0  0  0  0  0  0  0
   -4.0191   -2.8179    0.1327 H   0  0  0  0  0  0  0  0  0  0  0  0
   -5.0782   -2.6422   -1.2797 H   0  0  0  0  0  0  0  0  0  0  0  0
   -3.3774   -2.1681   -1.3856 H   0  0  0  0  0  0  0  0  0  0  0  0
  1  2  1  0  0  0  0
  2  3  1  0  0  0  0
  3  4  2  0  0  0  0
  4  5  2  0  0  0  0
  4  6  2  0  0  0  0
  6  7  1  0  0  0  0
  7  8  1  0  0  0  0
  4  9  1  0  0  0  0
  9 10  1  0  0  0  0
 10 11  1  0  0  0  0
 11 12  1  0  0  0  0
 12 13  2  0  0  0  0
 12 14  2  0  0  0  0
 14 15  1  0  0  0  0
 15 16  1  0  0  0  0
 12 17  2  0  0  0  0
 17 18  1  0  0  0  0
 18 19  1  0  0  0  0
  1 20  1  0  0  0  0
  1 21  1  0  0  0  0
  1 22  1  0  0  0  0
  2 23  1  0  0  0  0
  2 24  1  0  0  0  0
  7 25  1  0  0  0  0
  7 26  1  0  0  0  0
  8 27  1  0  0  0  0
  8 28  1  0  0  0  0
  8 29  1  0  0  0  0
 10 30  1  0  0  0  0
 10 31  1  0  0  0  0
 15 32  1  0  0  0  0
 15 33  1  0  0  0  0
 16 34  1  0  0  0  0
 16 35  1  0  0  0  0
 16 36  1  0  0  0  0
 18 37  1  0  0  0  0
 18 38  1  0  0  0  0
 19 39  1  0  0  0  0
 19 40  1  0  0  0  0
 19 41  1  0  0  0  0
M  END
