 xtb: 6.7.1 (edcfbbe)
          04092505213D

 41 40  0     0  0            999 V2000
   -0.4160   -1.7120    2.7792 C   0  0  0  0  0  0  0  0  0  0  0  0
    0.8837   -1.8342    2.0112 C   0  0  0  0  0  0  0  0  0  0  0  0
    1.2778   -0.5087    1.5894 O   0  0  0  0  0  0  0  0  0  0  0  0
    2.2393   -0.2096    0.3663 P   0  0  0  0  0  0  0  0  0  0  0  0
    2.9353   -1.8147   -0.5267 S   0  0  0  0  0  0  0  0  0  0  0  0
    3.2617    0.7284    1.1303 O   0  0  0  0  0  0  0  0  0  0  0  0
    4.1326    1.6948    0.5143 C   0  0  0  0  0  0  0  0  0  0  0  0
    4.9943    1.0960   -0.5783 C   0  0  0  0  0  0  0  0  0  0  0  0
    1.1805    1.1650   -0.8687 S   0  0  0  0  0  0  0  0  0  0  0  0
    0.4175   -0.0750   -1.9441 C   0  0  0  0  0  0  0  0  0  0  0  0
   -0.7410   -1.1448   -1.0655 S   0  0  0  0  0  0  0  0  0  0  0  0
   -2.2638    0.3116   -0.6740 P   0  0  0  0  0  0  0  0  0  0  0  0
   -2.3367    1.7906   -1.9496 S   0  0  0  0  0  0  0  0  0  0  0  0
   -2.0868    0.7224    0.8565 O   0  0  0  0  0  0  0  0  0  0  0  0
   -1.3710    1.8798    1.3216 C   0  0  0  0  0  0  0  0  0  0  0  0
   -2.2082    2.5661    2.3824 C   0  0  0  0  0  0  0  0  0  0  0  0
   -3.6016   -0.5140   -0.6430 O   0  0  0  0  0  0  0  0  0  0  0  0
   -4.0182   -1.4393    0.3942 C   0  0  0  0  0  0  0  0  0  0  0  0
   -3.4040   -2.8107    0.2049 C   0  0  0  0  0  0  0  0  0  0  0  0
   -0.2762   -1.0732    3.6464 H   0  0  0  0  0  0  0  0  0  0  0  0
   -1.1864   -1.2815    2.1454 H   0  0  0  0  0  0  0  0  0  0  0  0
   -0.7297   -2.6986    3.1037 H   0  0  0  0  0  0  0  0  0  0  0  0
    0.7746   -2.4734    1.1294 H   0  0  0  0  0  0  0  0  0  0  0  0
    1.6823   -2.2338    2.6402 H   0  0  0  0  0  0  0  0  0  0  0  0
    3.5174    2.5091    0.1211 H   0  0  0  0  0  0  0  0  0  0  0  0
    4.7390    2.0584    1.3458 H   0  0  0  0  0  0  0  0  0  0  0  0
    4.3729    0.7658   -1.4097 H   0  0  0  0  0  0  0  0  0  0  0  0
    5.6943    1.8440   -0.9365 H   0  0  0  0  0  0  0  0  0  0  0  0
    5.5458    0.2387   -0.1993 H   0  0  0  0  0  0  0  0  0  0  0  0
    1.1885   -0.7269   -2.3546 H   0  0  0  0  0  0  0  0  0  0  0  0
   -0.1080    0.4731   -2.7256 H   0  0  0  0  0  0  0  0  0  0  0  0
   -0.4169    1.5329    1.7283 H   0  0  0  0  0  0  0  0  0  0  0  0
   -1.1818    2.5477    0.4746 H   0  0  0  0  0  0  0  0  0  0  0  0
   -1.6620    3.4223    2.7642 H   0  0  0  0  0  0  0  0  0  0  0  0
   -3.1481    2.9044    1.9537 H   0  0  0  0  0  0  0  0  0  0  0  0
   -2.4170    1.8798    3.1980 H   0  0  0  0  0  0  0  0  0  0  0  0
   -3.7614   -1.0154    1.3661 H   0  0  0  0  0  0  0  0  0  0  0  0
   -5.1028   -1.4720    0.2792 H   0  0  0  0  0  0  0  0  0  0  0  0
   -2.3229   -2.7711    0.3223 H   0  0  0  0  0  0  0  0  0  0  0  0
   -3.8163   -3.4872    0.9470 H   0  0  0  0  0  0  0  0  0  0  0  0
   -3.6289   -3.1887   -0.7887 H   0  0  0  0  0  0  0  0  0  0  0  0
  1  2  1  0  0  0  0
  2  3  1  0  0  0  0
  3  4  2  0  0  0  0
  4  5  2  0  0  0  0
  4  6  2  0  0  0  0
  6  7  1  0  0  0  0
  7  8  1  0  0  0  0
  4  9  1  0  0  0  0
  9 10  1  0  0  0  0
 10 11  1  0  0  0  0
 11 12  1  0  0  0  0
 12 13  2  0  0  0  0
 12 14  2  0  0  0  0
 14 15  1  0  0  0  0
 15 16  1  0  0  0  0
 12 17  2  0  0  0  0
 17 18  1  0  0  0  0
 18 19  1  0  0  0  0
  1 20  1  0  0  0  0
  1 21  1  0  0  0  0
  1 22  1  0  0  0  0
  2 23  1  0  0  0  0
  2 24  1  0  0  0  0
  7 25  1  0  0  0  0
  7 26  1  0  0  0  0
  8 27  1  0  0  0  0
  8 28  1  0  0  0  0
  8 29  1  0  0  0  0
 10 30  1  0  0  0  0
 10 31  1  0  0  0  0
 15 32  1  0  0  0  0
 15 33  1  0  0  0  0
 16 34  1  0  0  0  0
 16 35  1  0  0  0  0
 16 36  1  0  0  0  0
 18 37  1  0  0  0  0
 18 38  1  0  0  0  0
 19 39  1  0  0  0  0
 19 40  1  0  0  0  0
 19 41  1  0  0  0  0
M  END
