 xtb: 6.7.1 (edcfbbe)
          04092505213D

 41 40  0     0  0            999 V2000
    4.9002   -0.5216   -1.4663 C   0  0  0  0  0  0  0  0  0  0  0  0
    3.7113   -1.4170   -1.1838 C   0  0  0  0  0  0  0  0  0  0  0  0
    2.9424   -0.9237   -0.0749 O   0  0  0  0  0  0  0  0  0  0  0  0
    1.9708    0.3414   -0.2044 P   0  0  0  0  0  0  0  0  0  0  0  0
    1.3331    0.6448   -2.0318 S   0  0  0  0  0  0  0  0  0  0  0  0
    2.7198    1.6457    0.2873 O   0  0  0  0  0  0  0  0  0  0  0  0
    3.0834    1.9794    1.6486 C   0  0  0  0  0  0  0  0  0  0  0  0
    4.1006    1.0205    2.2301 C   0  0  0  0  0  0  0  0  0  0  0  0
    0.7150   -0.1148    1.4329 S   0  0  0  0  0  0  0  0  0  0  0  0
    0.1494   -1.7645    0.9402 C   0  0  0  0  0  0  0  0  0  0  0  0
   -0.7342   -1.7920   -0.6553 S   0  0  0  0  0  0  0  0  0  0  0  0
   -2.1120   -0.2434   -0.3005 P   0  0  0  0  0  0  0  0  0  0  0  0
   -1.6861    1.6763   -0.3557 S   0  0  0  0  0  0  0  0  0  0  0  0
   -2.7792   -0.7202    1.0629 O   0  0  0  0  0  0  0  0  0  0  0  0
   -3.0618    0.1115    2.2071 C   0  0  0  0  0  0  0  0  0  0  0  0
   -2.3075   -0.3907    3.4221 C   0  0  0  0  0  0  0  0  0  0  0  0
   -3.0896   -0.7201   -1.4600 O   0  0  0  0  0  0  0  0  0  0  0  0
   -4.0822    0.1451   -2.0391 C   0  0  0  0  0  0  0  0  0  0  0  0
   -5.2021    0.4425   -1.0622 C   0  0  0  0  0  0  0  0  0  0  0  0
    5.4670   -0.9243   -2.2997 H   0  0  0  0  0  0  0  0  0  0  0  0
    4.5485    0.4769   -1.7262 H   0  0  0  0  0  0  0  0  0  0  0  0
    5.5419   -0.4556   -0.5918 H   0  0  0  0  0  0  0  0  0  0  0  0
    4.0189   -2.4170   -0.8753 H   0  0  0  0  0  0  0  0  0  0  0  0
    3.0599   -1.4795   -2.0616 H   0  0  0  0  0  0  0  0  0  0  0  0
    3.4863    2.9895    1.5573 H   0  0  0  0  0  0  0  0  0  0  0  0
    2.1724    2.0014    2.2522 H   0  0  0  0  0  0  0  0  0  0  0  0
    4.9891    0.9915    1.6049 H   0  0  0  0  0  0  0  0  0  0  0  0
    4.3747    1.3599    3.2241 H   0  0  0  0  0  0  0  0  0  0  0  0
    3.6806    0.0198    2.2996 H   0  0  0  0  0  0  0  0  0  0  0  0
   -0.5151   -2.1051    1.7316 H   0  0  0  0  0  0  0  0  0  0  0  0
    1.0034   -2.4284    0.8290 H   0  0  0  0  0  0  0  0  0  0  0  0
   -2.7868    1.1444    1.9674 H   0  0  0  0  0  0  0  0  0  0  0  0
   -4.1411    0.0452    2.3591 H   0  0  0  0  0  0  0  0  0  0  0  0
   -2.6223    0.1819    4.2884 H   0  0  0  0  0  0  0  0  0  0  0  0
   -2.5280   -1.4410    3.5901 H   0  0  0  0  0  0  0  0  0  0  0  0
   -1.2355   -0.2618    3.2856 H   0  0  0  0  0  0  0  0  0  0  0  0
   -3.5935    1.0708   -2.3614 H   0  0  0  0  0  0  0  0  0  0  0  0
   -4.4373   -0.4071   -2.9105 H   0  0  0  0  0  0  0  0  0  0  0  0
   -5.6158   -0.4851   -0.6750 H   0  0  0  0  0  0  0  0  0  0  0  0
   -4.8175    1.0370   -0.2337 H   0  0  0  0  0  0  0  0  0  0  0  0
   -5.9812    1.0043   -1.5677 H   0  0  0  0  0  0  0  0  0  0  0  0
  1  2  1  0  0  0  0
  2  3  1  0  0  0  0
  3  4  1  0  0  0  0
  4  5  2  0  0  0  0
  4  6  2  0  0  0  0
  6  7  1  0  0  0  0
  7  8  1  0  0  0  0
  4  9  1  0  0  0  0
  9 10  1  0  0  0  0
 10 11  1  0  0  0  0
 11 12  1  0  0  0  0
 12 13  2  0  0  0  0
 12 14  2  0  0  0  0
 14 15  1  0  0  0  0
 15 16  1  0  0  0  0
 12 17  2  0  0  0  0
 17 18  1  0  0  0  0
 18 19  1  0  0  0  0
  1 20  1  0  0  0  0
  1 21  1  0  0  0  0
  1 22  1  0  0  0  0
  2 23  1  0  0  0  0
  2 24  1  0  0  0  0
  7 25  1  0  0  0  0
  7 26  1  0  0  0  0
  8 27  1  0  0  0  0
  8 28  1  0  0  0  0
  8 29  1  0  0  0  0
 10 30  1  0  0  0  0
 10 31  1  0  0  0  0
 15 32  1  0  0  0  0
 15 33  1  0  0  0  0
 16 34  1  0  0  0  0
 16 35  1  0  0  0  0
 16 36  1  0  0  0  0
 18 37  1  0  0  0  0
 18 38  1  0  0  0  0
 19 39  1  0  0  0  0
 19 40  1  0  0  0  0
 19 41  1  0  0  0  0
M  END
