 xtb: 6.7.1 (edcfbbe)
          04032520273D

 10  9  0     0  0            999 V2000
    1.8272    0.3002    0.1312 C   0  0  0  0  0  0  0  0  0  0  0  0
    0.5813   -0.4808   -0.2755 C   0  0  0  0  0  0  0  0  0  0  0  0
   -0.6623    0.0718    0.3315 C   0  0  0  0  0  0  0  0  0  0  0  0
   -1.7526    0.0866   -0.1894 O   0  0  0  0  0  0  0  0  0  0  0  0
    1.9242    0.3291    1.2134 H   0  0  0  0  0  0  0  0  0  0  0  0
    1.7750    1.3205   -0.2394 H   0  0  0  0  0  0  0  0  0  0  0  0
    2.7128   -0.1716   -0.2836 H   0  0  0  0  0  0  0  0  0  0  0  0
    0.4683   -0.5265   -1.3595 H   0  0  0  0  0  0  0  0  0  0  0  0
    0.6625   -1.5084    0.0931 H   0  0  0  0  0  0  0  0  0  0  0  0
   -0.5322    0.4797    1.3508 H   0  0  0  0  0  0  0  0  0  0  0  0
  1  2  1  0  0  0  0
  2  3  1  0  0  0  0
  3  4  2  0  0  0  0
  1  5  1  0  0  0  0
  1  6  1  0  0  0  0
  1  7  1  0  0  0  0
  2  8  1  0  0  0  0
  2  9  1  0  0  0  0
  3 10  1  0  0  0  0
M  END
