 xtb: 6.7.1 (edcfbbe)
          04092505203D

 41 40  0     0  0            999 V2000
    4.4243   -0.7733   -2.0628 C   0  0  0  0  0  0  0  0  0  0  0  0
    4.7562   -0.7212   -0.5859 C   0  0  0  0  0  0  0  0  0  0  0  0
    3.6019   -0.9488    0.2431 O   0  0  0  0  0  0  0  0  0  0  0  0
    2.3932    0.0817    0.3125 P   0  0  0  0  0  0  0  0  0  0  0  0
    2.9056    1.9702    0.2551 S   0  0  0  0  0  0  0  0  0  0  0  0
    1.6972   -0.3053    1.6769 O   0  0  0  0  0  0  0  0  0  0  0  0
    1.7072   -1.6139    2.2978 C   0  0  0  0  0  0  0  0  0  0  0  0
    1.1913   -2.7085    1.3875 C   0  0  0  0  0  0  0  0  0  0  0  0
    1.0522   -0.5393   -1.2334 S   0  0  0  0  0  0  0  0  0  0  0  0
    0.2277    1.0536   -1.4520 C   0  0  0  0  0  0  0  0  0  0  0  0
   -0.6620    1.6001    0.0304 S   0  0  0  0  0  0  0  0  0  0  0  0
   -2.2407    0.1923   -0.0636 P   0  0  0  0  0  0  0  0  0  0  0  0
   -2.7172   -0.4380   -1.8632 S   0  0  0  0  0  0  0  0  0  0  0  0
   -3.4475    0.8449    0.7412 O   0  0  0  0  0  0  0  0  0  0  0  0
   -4.4490    1.6459    0.0908 C   0  0  0  0  0  0  0  0  0  0  0  0
   -3.8992    2.9818   -0.3646 C   0  0  0  0  0  0  0  0  0  0  0  0
   -1.7058   -0.8674    0.9885 O   0  0  0  0  0  0  0  0  0  0  0  0
   -2.5526   -1.8019    1.6980 C   0  0  0  0  0  0  0  0  0  0  0  0
   -3.1027   -2.8805    0.7873 C   0  0  0  0  0  0  0  0  0  0  0  0
    3.8962   -1.6926   -2.3033 H   0  0  0  0  0  0  0  0  0  0  0  0
    3.7950    0.0734   -2.3323 H   0  0  0  0  0  0  0  0  0  0  0  0
    5.3434   -0.7239   -2.6377 H   0  0  0  0  0  0  0  0  0  0  0  0
    5.1822    0.2518   -0.3228 H   0  0  0  0  0  0  0  0  0  0  0  0
    5.4422   -1.5191   -0.2981 H   0  0  0  0  0  0  0  0  0  0  0  0
    2.7290   -1.8249    2.6201 H   0  0  0  0  0  0  0  0  0  0  0  0
    1.0636   -1.4762    3.1685 H   0  0  0  0  0  0  0  0  0  0  0  0
    0.2070   -2.4505    1.0065 H   0  0  0  0  0  0  0  0  0  0  0  0
    1.8638   -2.8472    0.5434 H   0  0  0  0  0  0  0  0  0  0  0  0
    1.1296   -3.6360    1.9484 H   0  0  0  0  0  0  0  0  0  0  0  0
   -0.4727    0.9277   -2.2778 H   0  0  0  0  0  0  0  0  0  0  0  0
    0.9660    1.8263   -1.6628 H   0  0  0  0  0  0  0  0  0  0  0  0
   -4.8423    1.0820   -0.7612 H   0  0  0  0  0  0  0  0  0  0  0  0
   -5.2237    1.7659    0.8493 H   0  0  0  0  0  0  0  0  0  0  0  0
   -4.7111    3.5964   -0.7398 H   0  0  0  0  0  0  0  0  0  0  0  0
   -3.4105    3.4920    0.4618 H   0  0  0  0  0  0  0  0  0  0  0  0
   -3.1716    2.8326   -1.1612 H   0  0  0  0  0  0  0  0  0  0  0  0
   -1.8915   -2.2206    2.4590 H   0  0  0  0  0  0  0  0  0  0  0  0
   -3.3584   -1.2422    2.1774 H   0  0  0  0  0  0  0  0  0  0  0  0
   -3.6563   -3.6018    1.3802 H   0  0  0  0  0  0  0  0  0  0  0  0
   -3.7688   -2.4452    0.0443 H   0  0  0  0  0  0  0  0  0  0  0  0
   -2.2941   -3.3879    0.2666 H   0  0  0  0  0  0  0  0  0  0  0  0
  1  2  1  0  0  0  0
  2  3  1  0  0  0  0
  3  4  2  0  0  0  0
  4  5  2  0  0  0  0
  4  6  2  0  0  0  0
  6  7  1  0  0  0  0
  7  8  1  0  0  0  0
  4  9  1  0  0  0  0
  9 10  1  0  0  0  0
 10 11  1  0  0  0  0
 11 12  1  0  0  0  0
 12 13  2  0  0  0  0
 12 14  2  0  0  0  0
 14 15  1  0  0  0  0
 15 16  1  0  0  0  0
 12 17  2  0  0  0  0
 17 18  1  0  0  0  0
 18 19  1  0  0  0  0
  1 20  1  0  0  0  0
  1 21  1  0  0  0  0
  1 22  1  0  0  0  0
  2 23  1  0  0  0  0
  2 24  1  0  0  0  0
  7 25  1  0  0  0  0
  7 26  1  0  0  0  0
  8 27  1  0  0  0  0
  8 28  1  0  0  0  0
  8 29  1  0  0  0  0
 10 30  1  0  0  0  0
 10 31  1  0  0  0  0
 15 32  1  0  0  0  0
 15 33  1  0  0  0  0
 16 34  1  0  0  0  0
 16 35  1  0  0  0  0
 16 36  1  0  0  0  0
 18 37  1  0  0  0  0
 18 38  1  0  0  0  0
 19 39  1  0  0  0  0
 19 40  1  0  0  0  0
 19 41  1  0  0  0  0
M  END
