 xtb: 6.7.1 (edcfbbe)
          04092505213D

 41 40  0     0  0            999 V2000
    2.9673    0.4156   -3.0153 C   0  0  0  0  0  0  0  0  0  0  0  0
    2.6074   -0.9828   -2.5552 C   0  0  0  0  0  0  0  0  0  0  0  0
    1.7124   -0.9635   -1.4240 O   0  0  0  0  0  0  0  0  0  0  0  0
    2.1404   -0.5958    0.0543 P   0  0  0  0  0  0  0  0  0  0  0  0
    2.7382    1.2211    0.5149 S   0  0  0  0  0  0  0  0  0  0  0  0
    3.2702   -1.6959    0.2968 O   0  0  0  0  0  0  0  0  0  0  0  0
    4.1940   -1.6242    1.3943 C   0  0  0  0  0  0  0  0  0  0  0  0
    3.5068   -1.8312    2.7287 C   0  0  0  0  0  0  0  0  0  0  0  0
    0.4317   -1.3099    1.0547 S   0  0  0  0  0  0  0  0  0  0  0  0
   -0.1333    0.2252    1.8768 C   0  0  0  0  0  0  0  0  0  0  0  0
   -1.9164    0.4452    1.7635 S   0  0  0  0  0  0  0  0  0  0  0  0
   -2.1199    0.9415   -0.3024 P   0  0  0  0  0  0  0  0  0  0  0  0
   -0.4755    1.4264   -1.2530 S   0  0  0  0  0  0  0  0  0  0  0  0
   -3.1254    2.1466   -0.3620 O   0  0  0  0  0  0  0  0  0  0  0  0
   -4.2605    2.3815    0.5103 C   0  0  0  0  0  0  0  0  0  0  0  0
   -5.1846    1.1896    0.6293 C   0  0  0  0  0  0  0  0  0  0  0  0
   -2.9886   -0.2373   -0.9272 O   0  0  0  0  0  0  0  0  0  0  0  0
   -2.6367   -1.6306   -0.9311 C   0  0  0  0  0  0  0  0  0  0  0  0
   -1.6683   -1.9685   -2.0474 C   0  0  0  0  0  0  0  0  0  0  0  0
    3.5134    0.3606   -3.9515 H   0  0  0  0  0  0  0  0  0  0  0  0
    2.0613    1.0020   -3.1570 H   0  0  0  0  0  0  0  0  0  0  0  0
    3.5837    0.9174   -2.2717 H   0  0  0  0  0  0  0  0  0  0  0  0
    3.4984   -1.5564   -2.2883 H   0  0  0  0  0  0  0  0  0  0  0  0
    2.0378   -1.5146   -3.3196 H   0  0  0  0  0  0  0  0  0  0  0  0
    4.9144   -2.4155    1.1831 H   0  0  0  0  0  0  0  0  0  0  0  0
    4.6891   -0.6482    1.3657 H   0  0  0  0  0  0  0  0  0  0  0  0
    2.9171   -2.7443    2.7134 H   0  0  0  0  0  0  0  0  0  0  0  0
    4.2548   -1.8955    3.5122 H   0  0  0  0  0  0  0  0  0  0  0  0
    2.8496   -0.9879    2.9379 H   0  0  0  0  0  0  0  0  0  0  0  0
    0.3844    1.0712    1.4167 H   0  0  0  0  0  0  0  0  0  0  0  0
    0.0859    0.1571    2.9394 H   0  0  0  0  0  0  0  0  0  0  0  0
   -3.8737    2.6726    1.4899 H   0  0  0  0  0  0  0  0  0  0  0  0
   -4.7575    3.2316    0.0403 H   0  0  0  0  0  0  0  0  0  0  0  0
   -4.6835    0.3733    1.1460 H   0  0  0  0  0  0  0  0  0  0  0  0
   -6.0604    1.4814    1.2008 H   0  0  0  0  0  0  0  0  0  0  0  0
   -5.4940    0.8524   -0.3564 H   0  0  0  0  0  0  0  0  0  0  0  0
   -2.2157   -1.8999    0.0431 H   0  0  0  0  0  0  0  0  0  0  0  0
   -3.5915   -2.1410   -1.0715 H   0  0  0  0  0  0  0  0  0  0  0  0
   -1.4967   -3.0400   -2.0597 H   0  0  0  0  0  0  0  0  0  0  0  0
   -2.0751   -1.6544   -3.0050 H   0  0  0  0  0  0  0  0  0  0  0  0
   -0.7172   -1.4622   -1.8936 H   0  0  0  0  0  0  0  0  0  0  0  0
  1  2  1  0  0  0  0
  2  3  1  0  0  0  0
  3  4  2  0  0  0  0
  4  5  2  0  0  0  0
  4  6  2  0  0  0  0
  6  7  1  0  0  0  0
  7  8  1  0  0  0  0
  4  9  1  0  0  0  0
  9 10  1  0  0  0  0
 10 11  1  0  0  0  0
 11 12  1  0  0  0  0
 12 13  2  0  0  0  0
 12 14  2  0  0  0  0
 14 15  1  0  0  0  0
 15 16  1  0  0  0  0
 12 17  2  0  0  0  0
 17 18  1  0  0  0  0
 18 19  1  0  0  0  0
  1 20  1  0  0  0  0
  1 21  1  0  0  0  0
  1 22  1  0  0  0  0
  2 23  1  0  0  0  0
  2 24  1  0  0  0  0
  7 25  1  0  0  0  0
  7 26  1  0  0  0  0
  8 27  1  0  0  0  0
  8 28  1  0  0  0  0
  8 29  1  0  0  0  0
 10 30  1  0  0  0  0
 10 31  1  0  0  0  0
 15 32  1  0  0  0  0
 15 33  1  0  0  0  0
 16 34  1  0  0  0  0
 16 35  1  0  0  0  0
 16 36  1  0  0  0  0
 18 37  1  0  0  0  0
 18 38  1  0  0  0  0
 19 39  1  0  0  0  0
 19 40  1  0  0  0  0
 19 41  1  0  0  0  0
M  END
