 xtb: 6.7.1 (edcfbbe)
          04092505203D

 41 40  0     0  0            999 V2000
    3.8966    2.6836    0.5385 C   0  0  0  0  0  0  0  0  0  0  0  0
    2.8184    2.0359   -0.3061 C   0  0  0  0  0  0  0  0  0  0  0  0
    1.7566    1.5091    0.5327 O   0  0  0  0  0  0  0  0  0  0  0  0
    1.6728   -0.0192    0.9122 P   0  0  0  0  0  0  0  0  0  0  0  0
    0.3106   -0.4402    2.2472 S   0  0  0  0  0  0  0  0  0  0  0  0
    3.1671   -0.2932    1.4064 O   0  0  0  0  0  0  0  0  0  0  0  0
    3.5279   -1.4309    2.2038 C   0  0  0  0  0  0  0  0  0  0  0  0
    3.3535   -2.7420    1.4637 C   0  0  0  0  0  0  0  0  0  0  0  0
    1.5823   -1.0491   -0.9650 S   0  0  0  0  0  0  0  0  0  0  0  0
    0.0762   -2.0279   -0.7408 C   0  0  0  0  0  0  0  0  0  0  0  0
   -1.2674   -1.5935   -1.8953 S   0  0  0  0  0  0  0  0  0  0  0  0
   -2.1725   -0.0121   -0.8489 P   0  0  0  0  0  0  0  0  0  0  0  0
   -3.7325    0.8213   -1.6857 S   0  0  0  0  0  0  0  0  0  0  0  0
   -0.9757    1.0006   -0.5016 O   0  0  0  0  0  0  0  0  0  0  0  0
   -0.7794    2.1824   -1.2971 C   0  0  0  0  0  0  0  0  0  0  0  0
   -0.1887    1.8544   -2.6543 C   0  0  0  0  0  0  0  0  0  0  0  0
   -2.4326   -0.7429    0.5333 O   0  0  0  0  0  0  0  0  0  0  0  0
   -3.4284   -0.2822    1.4693 C   0  0  0  0  0  0  0  0  0  0  0  0
   -3.1041    1.0886    2.0229 C   0  0  0  0  0  0  0  0  0  0  0  0
    4.3844    1.9423    1.1651 H   0  0  0  0  0  0  0  0  0  0  0  0
    4.6323    3.1391   -0.1169 H   0  0  0  0  0  0  0  0  0  0  0  0
    3.4609    3.4487    1.1752 H   0  0  0  0  0  0  0  0  0  0  0  0
    3.2253    1.2254   -0.9165 H   0  0  0  0  0  0  0  0  0  0  0  0
    2.3300    2.7705   -0.9490 H   0  0  0  0  0  0  0  0  0  0  0  0
    4.5740   -1.2513    2.4560 H   0  0  0  0  0  0  0  0  0  0  0  0
    2.9202   -1.4206    3.1141 H   0  0  0  0  0  0  0  0  0  0  0  0
    3.8553   -2.7040    0.5001 H   0  0  0  0  0  0  0  0  0  0  0  0
    3.7761   -3.5456    2.0584 H   0  0  0  0  0  0  0  0  0  0  0  0
    2.2948   -2.9436    1.3063 H   0  0  0  0  0  0  0  0  0  0  0  0
   -0.2777   -1.9106    0.2857 H   0  0  0  0  0  0  0  0  0  0  0  0
    0.3177   -3.0625   -0.9684 H   0  0  0  0  0  0  0  0  0  0  0  0
   -1.7469    2.6817   -1.4151 H   0  0  0  0  0  0  0  0  0  0  0  0
   -0.1168    2.8014   -0.6913 H   0  0  0  0  0  0  0  0  0  0  0  0
    0.7335    1.2874   -2.5484 H   0  0  0  0  0  0  0  0  0  0  0  0
   -0.8996    1.2592   -3.2280 H   0  0  0  0  0  0  0  0  0  0  0  0
    0.0121    2.7755   -3.1918 H   0  0  0  0  0  0  0  0  0  0  0  0
   -4.3970   -0.2746    0.9598 H   0  0  0  0  0  0  0  0  0  0  0  0
   -3.4179   -1.0441    2.2497 H   0  0  0  0  0  0  0  0  0  0  0  0
   -3.8287    1.3483    2.7880 H   0  0  0  0  0  0  0  0  0  0  0  0
   -2.1060    1.0898    2.4550 H   0  0  0  0  0  0  0  0  0  0  0  0
   -3.1469    1.8304    1.2259 H   0  0  0  0  0  0  0  0  0  0  0  0
  1  2  1  0  0  0  0
  2  3  1  0  0  0  0
  3  4  2  0  0  0  0
  4  5  2  0  0  0  0
  4  6  1  0  0  0  0
  6  7  1  0  0  0  0
  7  8  1  0  0  0  0
  4  9  1  0  0  0  0
  9 10  1  0  0  0  0
 10 11  1  0  0  0  0
 11 12  1  0  0  0  0
 12 13  2  0  0  0  0
 12 14  1  0  0  0  0
 14 15  1  0  0  0  0
 15 16  1  0  0  0  0
 12 17  2  0  0  0  0
 17 18  1  0  0  0  0
 18 19  1  0  0  0  0
  1 20  1  0  0  0  0
  1 21  1  0  0  0  0
  1 22  1  0  0  0  0
  2 23  1  0  0  0  0
  2 24  1  0  0  0  0
  7 25  1  0  0  0  0
  7 26  1  0  0  0  0
  8 27  1  0  0  0  0
  8 28  1  0  0  0  0
  8 29  1  0  0  0  0
 10 30  1  0  0  0  0
 10 31  1  0  0  0  0
 15 32  1  0  0  0  0
 15 33  1  0  0  0  0
 16 34  1  0  0  0  0
 16 35  1  0  0  0  0
 16 36  1  0  0  0  0
 18 37  1  0  0  0  0
 18 38  1  0  0  0  0
 19 39  1  0  0  0  0
 19 40  1  0  0  0  0
 19 41  1  0  0  0  0
M  END
