 xtb: 6.7.1 (edcfbbe)
          04092505203D

 41 40  0     0  0            999 V2000
    5.4029    0.6752   -0.4056 C   0  0  0  0  0  0  0  0  0  0  0  0
    4.8185   -0.6880   -0.7093 C   0  0  0  0  0  0  0  0  0  0  0  0
    3.5903   -0.9216    0.0104 O   0  0  0  0  0  0  0  0  0  0  0  0
    2.2613   -0.1272   -0.3111 P   0  0  0  0  0  0  0  0  0  0  0  0
    1.9770    0.3215   -2.2018 S   0  0  0  0  0  0  0  0  0  0  0  0
    2.3905    1.1094    0.6827 O   0  0  0  0  0  0  0  0  0  0  0  0
    1.5049    2.2402    0.6604 C   0  0  0  0  0  0  0  0  0  0  0  0
    2.1974    3.3873    1.3673 C   0  0  0  0  0  0  0  0  0  0  0  0
    0.9009   -1.4363    0.6217 S   0  0  0  0  0  0  0  0  0  0  0  0
   -0.1934   -1.8458   -0.7908 C   0  0  0  0  0  0  0  0  0  0  0  0
   -1.9209   -1.9019   -0.2952 S   0  0  0  0  0  0  0  0  0  0  0  0
   -2.1586    0.1647    0.1766 P   0  0  0  0  0  0  0  0  0  0  0  0
   -1.4137    1.3934   -1.1565 S   0  0  0  0  0  0  0  0  0  0  0  0
   -1.5093    0.4214    1.5937 O   0  0  0  0  0  0  0  0  0  0  0  0
   -2.0802    0.0532    2.8751 C   0  0  0  0  0  0  0  0  0  0  0  0
   -2.2090   -1.4449    3.0502 C   0  0  0  0  0  0  0  0  0  0  0  0
   -3.7077    0.3175    0.4842 O   0  0  0  0  0  0  0  0  0  0  0  0
   -4.6870    0.5721   -0.5398 C   0  0  0  0  0  0  0  0  0  0  0  0
   -4.8137   -0.5771   -1.5179 C   0  0  0  0  0  0  0  0  0  0  0  0
    4.7437    1.4524   -0.7903 H   0  0  0  0  0  0  0  0  0  0  0  0
    5.5126    0.8061    0.6676 H   0  0  0  0  0  0  0  0  0  0  0  0
    6.3729    0.7665   -0.8845 H   0  0  0  0  0  0  0  0  0  0  0  0
    5.4717   -1.4946   -0.3740 H   0  0  0  0  0  0  0  0  0  0  0  0
    4.6148   -0.7913   -1.7798 H   0  0  0  0  0  0  0  0  0  0  0  0
    1.2700    2.4884   -0.3808 H   0  0  0  0  0  0  0  0  0  0  0  0
    0.5744    1.9619    1.1651 H   0  0  0  0  0  0  0  0  0  0  0  0
    3.1054    3.6602    0.8370 H   0  0  0  0  0  0  0  0  0  0  0  0
    1.5285    4.2411    1.3952 H   0  0  0  0  0  0  0  0  0  0  0  0
    2.4540    3.0936    2.3809 H   0  0  0  0  0  0  0  0  0  0  0  0
    0.0539   -2.8399   -1.1541 H   0  0  0  0  0  0  0  0  0  0  0  0
   -0.0498   -1.0917   -1.5705 H   0  0  0  0  0  0  0  0  0  0  0  0
   -1.3732    0.4786    3.5892 H   0  0  0  0  0  0  0  0  0  0  0  0
   -3.0493    0.5461    2.9687 H   0  0  0  0  0  0  0  0  0  0  0  0
   -1.2590   -1.9318    2.8396 H   0  0  0  0  0  0  0  0  0  0  0  0
   -2.4981   -1.6543    4.0754 H   0  0  0  0  0  0  0  0  0  0  0  0
   -2.9664   -1.8440    2.3795 H   0  0  0  0  0  0  0  0  0  0  0  0
   -5.6098    0.7276    0.0212 H   0  0  0  0  0  0  0  0  0  0  0  0
   -4.4079    1.4924   -1.0618 H   0  0  0  0  0  0  0  0  0  0  0  0
   -4.9682   -1.5131   -0.9873 H   0  0  0  0  0  0  0  0  0  0  0  0
   -5.6547   -0.3924   -2.1786 H   0  0  0  0  0  0  0  0  0  0  0  0
   -3.9080   -0.6590   -2.1167 H   0  0  0  0  0  0  0  0  0  0  0  0
  1  2  1  0  0  0  0
  2  3  1  0  0  0  0
  3  4  2  0  0  0  0
  4  5  2  0  0  0  0
  4  6  2  0  0  0  0
  6  7  1  0  0  0  0
  7  8  1  0  0  0  0
  4  9  1  0  0  0  0
  9 10  1  0  0  0  0
 10 11  1  0  0  0  0
 11 12  1  0  0  0  0
 12 13  2  0  0  0  0
 12 14  2  0  0  0  0
 14 15  1  0  0  0  0
 15 16  1  0  0  0  0
 12 17  2  0  0  0  0
 17 18  1  0  0  0  0
 18 19  1  0  0  0  0
  1 20  1  0  0  0  0
  1 21  1  0  0  0  0
  1 22  1  0  0  0  0
  2 23  1  0  0  0  0
  2 24  1  0  0  0  0
  7 25  1  0  0  0  0
  7 26  1  0  0  0  0
  8 27  1  0  0  0  0
  8 28  1  0  0  0  0
  8 29  1  0  0  0  0
 10 30  1  0  0  0  0
 10 31  1  0  0  0  0
 15 32  1  0  0  0  0
 15 33  1  0  0  0  0
 16 34  1  0  0  0  0
 16 35  1  0  0  0  0
 16 36  1  0  0  0  0
 18 37  1  0  0  0  0
 18 38  1  0  0  0  0
 19 39  1  0  0  0  0
 19 40  1  0  0  0  0
 19 41  1  0  0  0  0
M  END
