 xtb: 6.7.1 (edcfbbe)
          04092507313D

 38 37  0     0  0            999 V2000
    5.3313   -2.2895   -0.5777 C   0  0  0  0  0  0  0  0  0  0  0  0
    4.6061   -1.1944    0.1883 C   0  0  0  0  0  0  0  0  0  0  0  0
    3.1789   -1.3862    0.1389 O   0  0  0  0  0  0  0  0  0  0  0  0
    2.5185   -0.9052   -0.8919 C   0  0  0  0  0  0  0  0  0  0  0  0
    3.0170   -0.2874   -1.8073 O   0  0  0  0  0  0  0  0  0  0  0  0
    1.0375   -1.2311   -0.8011 C   0  0  0  0  0  0  0  0  0  0  0  0
    0.2333   -0.0558   -1.3404 C   0  0  0  0  0  0  0  0  0  0  0  0
    0.6398    0.2333   -2.3171 H   0  0  0  0  0  0  0  0  0  0  0  0
    0.3017    1.1700   -0.4499 C   0  0  0  0  0  0  0  0  0  0  0  0
   -0.5788    2.0068   -0.4045 O   0  0  0  0  0  0  0  0  0  0  0  0
    1.4269    1.2338    0.2107 O   0  0  0  0  0  0  0  0  0  0  0  0
    1.6205    2.3477    1.1083 C   0  0  0  0  0  0  0  0  0  0  0  0
    3.0488    2.2982    1.6102 C   0  0  0  0  0  0  0  0  0  0  0  0
   -1.5165   -0.4638   -1.6641 S   0  0  0  0  0  0  0  0  0  0  0  0
   -2.3601   -0.0498    0.2077 P   0  0  0  0  0  0  0  0  0  0  0  0
   -1.2282   -0.1254    1.8172 S   0  0  0  0  0  0  0  0  0  0  0  0
   -3.1994    1.2697   -0.0465 O   0  0  0  0  0  0  0  0  0  0  0  0
   -3.9043    1.9243    1.0204 C   0  0  0  0  0  0  0  0  0  0  0  0
   -3.5633   -1.1057    0.2874 O   0  0  0  0  0  0  0  0  0  0  0  0
   -3.3376   -2.4825    0.6107 C   0  0  0  0  0  0  0  0  0  0  0  0
    5.0815   -2.2345   -1.6347 H   0  0  0  0  0  0  0  0  0  0  0  0
    6.4022   -2.1591   -0.4619 H   0  0  0  0  0  0  0  0  0  0  0  0
    5.0455   -3.2655   -0.1955 H   0  0  0  0  0  0  0  0  0  0  0  0
    4.8391   -0.2108   -0.2288 H   0  0  0  0  0  0  0  0  0  0  0  0
    4.8484   -1.2258    1.2505 H   0  0  0  0  0  0  0  0  0  0  0  0
    0.7836   -1.4558    0.2353 H   0  0  0  0  0  0  0  0  0  0  0  0
    0.8426   -2.1094   -1.4191 H   0  0  0  0  0  0  0  0  0  0  0  0
    1.4027    3.2714    0.5638 H   0  0  0  0  0  0  0  0  0  0  0  0
    0.8976    2.2417    1.9238 H   0  0  0  0  0  0  0  0  0  0  0  0
    3.7393    2.3752    0.7752 H   0  0  0  0  0  0  0  0  0  0  0  0
    3.2159    3.1248    2.2922 H   0  0  0  0  0  0  0  0  0  0  0  0
    3.2238    1.3611    2.1303 H   0  0  0  0  0  0  0  0  0  0  0  0
   -4.8299    1.3890    1.2294 H   0  0  0  0  0  0  0  0  0  0  0  0
   -4.1075    2.9299    0.6610 H   0  0  0  0  0  0  0  0  0  0  0  0
   -3.2832    1.9603    1.9177 H   0  0  0  0  0  0  0  0  0  0  0  0
   -2.9194   -3.0003   -0.2515 H   0  0  0  0  0  0  0  0  0  0  0  0
   -4.3133   -2.8879    0.8656 H   0  0  0  0  0  0  0  0  0  0  0  0
   -2.6582   -2.5595    1.4615 H   0  0  0  0  0  0  0  0  0  0  0  0
  1  2  1  0  0  0  0
  2  3  1  0  0  0  0
  3  4  1  0  0  0  0
  4  5  2  0  0  0  0
  4  6  1  0  0  0  0
  6  7  1  0  0  0  0
  7  8  1  0  0  0  0
  7  9  1  0  0  0  0
  9 10  2  0  0  0  0
  9 11  4  0  0  0  0
 11 12  1  0  0  0  0
 12 13  1  0  0  0  0
  7 14  1  0  0  0  0
 14 15  1  0  0  0  0
 15 16  2  0  0  0  0
 15 17  2  0  0  0  0
 17 18  1  0  0  0  0
 15 19  1  0  0  0  0
 19 20  1  0  0  0  0
  1 21  1  0  0  0  0
  1 22  1  0  0  0  0
  1 23  1  0  0  0  0
  2 24  1  0  0  0  0
  2 25  1  0  0  0  0
  6 26  1  0  0  0  0
  6 27  1  0  0  0  0
 12 28  1  0  0  0  0
 12 29  1  0  0  0  0
 13 30  1  0  0  0  0
 13 31  1  0  0  0  0
 13 32  1  0  0  0  0
 18 33  1  0  0  0  0
 18 34  1  0  0  0  0
 18 35  1  0  0  0  0
 20 36  1  0  0  0  0
 20 37  1  0  0  0  0
 20 38  1  0  0  0  0
M  END
