 xtb: 6.7.1 (edcfbbe)
          04092507313D

 38 37  0     0  0            999 V2000
    2.1831   -3.7726    0.5276 C   0  0  0  0  0  0  0  0  0  0  0  0
    2.7962   -2.3867    0.4767 C   0  0  0  0  0  0  0  0  0  0  0  0
    2.2744   -1.7000   -0.6769 O   0  0  0  0  0  0  0  0  0  0  0  0
    2.0822   -0.4039   -0.6261 C   0  0  0  0  0  0  0  0  0  0  0  0
    2.3078    0.3039    0.3355 O   0  0  0  0  0  0  0  0  0  0  0  0
    1.5617    0.1453   -1.9419 C   0  0  0  0  0  0  0  0  0  0  0  0
    0.2859    0.9653   -1.7278 C   0  0  0  0  0  0  0  0  0  0  0  0
    0.1160    1.6133   -2.5908 H   0  0  0  0  0  0  0  0  0  0  0  0
    0.3743    1.8205   -0.4766 C   0  0  0  0  0  0  0  0  0  0  0  0
   -0.3232    1.6108    0.5015 O   0  0  0  0  0  0  0  0  0  0  0  0
    1.2037    2.8085   -0.6236 O   0  0  0  0  0  0  0  0  0  0  0  0
    1.4744    3.6917    0.4886 C   0  0  0  0  0  0  0  0  0  0  0  0
    2.9303    3.5496    0.8954 C   0  0  0  0  0  0  0  0  0  0  0  0
   -1.2024   -0.0802   -1.6226 S   0  0  0  0  0  0  0  0  0  0  0  0
   -1.6380   -0.4257    0.4381 P   0  0  0  0  0  0  0  0  0  0  0  0
   -0.3290   -1.0858    1.7386 S   0  0  0  0  0  0  0  0  0  0  0  0
   -2.6543    0.6701    0.9706 O   0  0  0  0  0  0  0  0  0  0  0  0
   -3.9014    0.9520    0.3090 C   0  0  0  0  0  0  0  0  0  0  0  0
   -2.7233   -1.5906    0.1388 O   0  0  0  0  0  0  0  0  0  0  0  0
   -2.3351   -2.9183   -0.2102 C   0  0  0  0  0  0  0  0  0  0  0  0
    1.1169   -3.6943    0.7221 H   0  0  0  0  0  0  0  0  0  0  0  0
    2.3404   -4.2839   -0.4170 H   0  0  0  0  0  0  0  0  0  0  0  0
    2.6454   -4.3378    1.3295 H   0  0  0  0  0  0  0  0  0  0  0  0
    3.8825   -2.4323    0.3594 H   0  0  0  0  0  0  0  0  0  0  0  0
    2.5483   -1.8062    1.3705 H   0  0  0  0  0  0  0  0  0  0  0  0
    1.3717   -0.6728   -2.6351 H   0  0  0  0  0  0  0  0  0  0  0  0
    2.3338    0.8040   -2.3448 H   0  0  0  0  0  0  0  0  0  0  0  0
    1.2569    4.6964    0.1210 H   0  0  0  0  0  0  0  0  0  0  0  0
    0.8032    3.4344    1.3118 H   0  0  0  0  0  0  0  0  0  0  0  0
    3.1308    4.1979    1.7417 H   0  0  0  0  0  0  0  0  0  0  0  0
    3.1310    2.5186    1.1781 H   0  0  0  0  0  0  0  0  0  0  0  0
    3.5789    3.8220    0.0684 H   0  0  0  0  0  0  0  0  0  0  0  0
   -3.7418    1.0844   -0.7614 H   0  0  0  0  0  0  0  0  0  0  0  0
   -4.2587    1.8731    0.7628 H   0  0  0  0  0  0  0  0  0  0  0  0
   -4.6005    0.1356    0.4810 H   0  0  0  0  0  0  0  0  0  0  0  0
   -1.9742   -2.9446   -1.2383 H   0  0  0  0  0  0  0  0  0  0  0  0
   -3.2306   -3.5250   -0.1023 H   0  0  0  0  0  0  0  0  0  0  0  0
   -1.5551   -3.2676    0.4692 H   0  0  0  0  0  0  0  0  0  0  0  0
  1  2  1  0  0  0  0
  2  3  1  0  0  0  0
  3  4  4  0  0  0  0
  4  5  2  0  0  0  0
  4  6  1  0  0  0  0
  6  7  1  0  0  0  0
  7  8  1  0  0  0  0
  7  9  1  0  0  0  0
  9 10  2  0  0  0  0
  9 11  4  0  0  0  0
 11 12  1  0  0  0  0
 12 13  1  0  0  0  0
  7 14  1  0  0  0  0
 14 15  1  0  0  0  0
 15 16  2  0  0  0  0
 15 17  2  0  0  0  0
 17 18  1  0  0  0  0
 15 19  1  0  0  0  0
 19 20  1  0  0  0  0
  1 21  1  0  0  0  0
  1 22  1  0  0  0  0
  1 23  1  0  0  0  0
  2 24  1  0  0  0  0
  2 25  1  0  0  0  0
  6 26  1  0  0  0  0
  6 27  1  0  0  0  0
 12 28  1  0  0  0  0
 12 29  1  0  0  0  0
 13 30  1  0  0  0  0
 13 31  1  0  0  0  0
 13 32  1  0  0  0  0
 18 33  1  0  0  0  0
 18 34  1  0  0  0  0
 18 35  1  0  0  0  0
 20 36  1  0  0  0  0
 20 37  1  0  0  0  0
 20 38  1  0  0  0  0
M  END
