 xtb: 6.7.1 (edcfbbe)
          04092505213D

 41 40  0     0  0            999 V2000
    4.5871    0.9206   -2.2847 C   0  0  0  0  0  0  0  0  0  0  0  0
    4.1443   -0.4241   -1.7408 C   0  0  0  0  0  0  0  0  0  0  0  0
    3.6717   -0.2904   -0.3849 O   0  0  0  0  0  0  0  0  0  0  0  0
    2.1255   -0.2084   -0.0282 P   0  0  0  0  0  0  0  0  0  0  0  0
    1.0925    1.0798   -1.0983 S   0  0  0  0  0  0  0  0  0  0  0  0
    2.1527    0.0236    1.5334 O   0  0  0  0  0  0  0  0  0  0  0  0
    2.1524    1.3387    2.1237 C   0  0  0  0  0  0  0  0  0  0  0  0
    3.4267    2.0917    1.8106 C   0  0  0  0  0  0  0  0  0  0  0  0
    1.5873   -2.2445   -0.0996 S   0  0  0  0  0  0  0  0  0  0  0  0
   -0.1430   -2.1762    0.4428 C   0  0  0  0  0  0  0  0  0  0  0  0
   -1.3178   -1.6912   -0.8618 S   0  0  0  0  0  0  0  0  0  0  0  0
   -2.1072    0.0892   -0.0289 P   0  0  0  0  0  0  0  0  0  0  0  0
   -1.3119    0.6636    1.6776 S   0  0  0  0  0  0  0  0  0  0  0  0
   -3.6832   -0.1559    0.0034 O   0  0  0  0  0  0  0  0  0  0  0  0
   -4.3463   -1.3040    0.5624 C   0  0  0  0  0  0  0  0  0  0  0  0
   -4.0110   -1.5366    2.0210 C   0  0  0  0  0  0  0  0  0  0  0  0
   -1.9942    1.1033   -1.2334 O   0  0  0  0  0  0  0  0  0  0  0  0
   -2.9730    2.1168   -1.5490 C   0  0  0  0  0  0  0  0  0  0  0  0
   -3.1326    3.1178   -0.4238 C   0  0  0  0  0  0  0  0  0  0  0  0
    4.9961    0.7867   -3.2809 H   0  0  0  0  0  0  0  0  0  0  0  0
    3.7378    1.5987   -2.3383 H   0  0  0  0  0  0  0  0  0  0  0  0
    5.3452    1.3536   -1.6384 H   0  0  0  0  0  0  0  0  0  0  0  0
    4.9786   -1.1249   -1.6779 H   0  0  0  0  0  0  0  0  0  0  0  0
    3.3529   -0.8542   -2.3611 H   0  0  0  0  0  0  0  0  0  0  0  0
    1.2742    1.8824    1.7609 H   0  0  0  0  0  0  0  0  0  0  0  0
    2.0386    1.1430    3.1907 H   0  0  0  0  0  0  0  0  0  0  0  0
    4.2910    1.5015    2.1032 H   0  0  0  0  0  0  0  0  0  0  0  0
    3.4806    2.2911    0.7409 H   0  0  0  0  0  0  0  0  0  0  0  0
    3.4289    3.0347    2.3481 H   0  0  0  0  0  0  0  0  0  0  0  0
   -0.2337   -1.4709    1.2755 H   0  0  0  0  0  0  0  0  0  0  0  0
   -0.3876   -3.1902    0.7469 H   0  0  0  0  0  0  0  0  0  0  0  0
   -5.4050   -1.0722    0.4316 H   0  0  0  0  0  0  0  0  0  0  0  0
   -4.0807   -2.1768   -0.0409 H   0  0  0  0  0  0  0  0  0  0  0  0
   -2.9593   -1.7951    2.1323 H   0  0  0  0  0  0  0  0  0  0  0  0
   -4.2057   -0.6400    2.6045 H   0  0  0  0  0  0  0  0  0  0  0  0
   -4.6180   -2.3519    2.4013 H   0  0  0  0  0  0  0  0  0  0  0  0
   -2.5671    2.5836   -2.4480 H   0  0  0  0  0  0  0  0  0  0  0  0
   -3.9213    1.6246   -1.7752 H   0  0  0  0  0  0  0  0  0  0  0  0
   -2.1711    3.5666   -0.1835 H   0  0  0  0  0  0  0  0  0  0  0  0
   -3.8287    3.8946   -0.7236 H   0  0  0  0  0  0  0  0  0  0  0  0
   -3.5135    2.6178    0.4664 H   0  0  0  0  0  0  0  0  0  0  0  0
  1  2  1  0  0  0  0
  2  3  1  0  0  0  0
  3  4  2  0  0  0  0
  4  5  2  0  0  0  0
  4  6  2  0  0  0  0
  6  7  1  0  0  0  0
  7  8  1  0  0  0  0
  4  9  1  0  0  0  0
  9 10  1  0  0  0  0
 10 11  1  0  0  0  0
 11 12  1  0  0  0  0
 12 13  2  0  0  0  0
 12 14  2  0  0  0  0
 14 15  1  0  0  0  0
 15 16  1  0  0  0  0
 12 17  2  0  0  0  0
 17 18  1  0  0  0  0
 18 19  1  0  0  0  0
  1 20  1  0  0  0  0
  1 21  1  0  0  0  0
  1 22  1  0  0  0  0
  2 23  1  0  0  0  0
  2 24  1  0  0  0  0
  7 25  1  0  0  0  0
  7 26  1  0  0  0  0
  8 27  1  0  0  0  0
  8 28  1  0  0  0  0
  8 29  1  0  0  0  0
 10 30  1  0  0  0  0
 10 31  1  0  0  0  0
 15 32  1  0  0  0  0
 15 33  1  0  0  0  0
 16 34  1  0  0  0  0
 16 35  1  0  0  0  0
 16 36  1  0  0  0  0
 18 37  1  0  0  0  0
 18 38  1  0  0  0  0
 19 39  1  0  0  0  0
 19 40  1  0  0  0  0
 19 41  1  0  0  0  0
M  END
