 xtb: 6.7.1 (edcfbbe)
          04092505203D

 41 40  0     0  0            999 V2000
    3.1087    1.1541    2.9516 C   0  0  0  0  0  0  0  0  0  0  0  0
    1.7073    0.7149    2.5849 C   0  0  0  0  0  0  0  0  0  0  0  0
    1.4968    0.7707    1.1567 O   0  0  0  0  0  0  0  0  0  0  0  0
    2.2157   -0.2416    0.1765 P   0  0  0  0  0  0  0  0  0  0  0  0
    2.6204   -2.0094    0.9299 S   0  0  0  0  0  0  0  0  0  0  0  0
    3.4362    0.6405   -0.3287 O   0  0  0  0  0  0  0  0  0  0  0  0
    4.3761    0.1760   -1.3181 C   0  0  0  0  0  0  0  0  0  0  0  0
    5.5604   -0.5116   -0.6662 C   0  0  0  0  0  0  0  0  0  0  0  0
    0.9188   -0.2404   -1.4975 S   0  0  0  0  0  0  0  0  0  0  0  0
   -0.1542   -1.5824   -0.9174 C   0  0  0  0  0  0  0  0  0  0  0  0
   -1.1833   -1.1022    0.4881 S   0  0  0  0  0  0  0  0  0  0  0  0
   -2.3787    0.3118   -0.5840 P   0  0  0  0  0  0  0  0  0  0  0  0
   -2.7580   -0.1251   -2.4491 S   0  0  0  0  0  0  0  0  0  0  0  0
   -1.6187    1.6863   -0.4378 O   0  0  0  0  0  0  0  0  0  0  0  0
   -1.3451    2.3112    0.8396 C   0  0  0  0  0  0  0  0  0  0  0  0
   -2.3543    3.4042    1.1242 C   0  0  0  0  0  0  0  0  0  0  0  0
   -3.6436    0.5170    0.3568 O   0  0  0  0  0  0  0  0  0  0  0  0
   -4.8219   -0.3050    0.2598 C   0  0  0  0  0  0  0  0  0  0  0  0
   -4.5556   -1.7473    0.6380 C   0  0  0  0  0  0  0  0  0  0  0  0
    3.2098    1.1777    4.0320 H   0  0  0  0  0  0  0  0  0  0  0  0
    3.8316    0.4490    2.5426 H   0  0  0  0  0  0  0  0  0  0  0  0
    3.3127    2.1407    2.5443 H   0  0  0  0  0  0  0  0  0  0  0  0
    0.9504    1.3865    2.9913 H   0  0  0  0  0  0  0  0  0  0  0  0
    1.5185   -0.3087    2.9239 H   0  0  0  0  0  0  0  0  0  0  0  0
    3.8647   -0.4949   -2.0147 H   0  0  0  0  0  0  0  0  0  0  0  0
    4.6832    1.0804   -1.8468 H   0  0  0  0  0  0  0  0  0  0  0  0
    5.2347   -1.4025   -0.1337 H   0  0  0  0  0  0  0  0  0  0  0  0
    6.2722   -0.7994   -1.4331 H   0  0  0  0  0  0  0  0  0  0  0  0
    6.0428    0.1616    0.0370 H   0  0  0  0  0  0  0  0  0  0  0  0
    0.4578   -2.4227   -0.5885 H   0  0  0  0  0  0  0  0  0  0  0  0
   -0.7916   -1.8535   -1.7589 H   0  0  0  0  0  0  0  0  0  0  0  0
   -1.3603    1.5432    1.6184 H   0  0  0  0  0  0  0  0  0  0  0  0
   -0.3344    2.7123    0.7382 H   0  0  0  0  0  0  0  0  0  0  0  0
   -3.3499    2.9799    1.2226 H   0  0  0  0  0  0  0  0  0  0  0  0
   -2.0842    3.9061    2.0480 H   0  0  0  0  0  0  0  0  0  0  0  0
   -2.3586    4.1250    0.3112 H   0  0  0  0  0  0  0  0  0  0  0  0
   -5.5244    0.1677    0.9477 H   0  0  0  0  0  0  0  0  0  0  0  0
   -5.2012   -0.2402   -0.7644 H   0  0  0  0  0  0  0  0  0  0  0  0
   -3.9115   -2.2151   -0.1051 H   0  0  0  0  0  0  0  0  0  0  0  0
   -4.0695   -1.8030    1.6089 H   0  0  0  0  0  0  0  0  0  0  0  0
   -5.4969   -2.2862    0.6742 H   0  0  0  0  0  0  0  0  0  0  0  0
  1  2  1  0  0  0  0
  2  3  1  0  0  0  0
  3  4  2  0  0  0  0
  4  5  2  0  0  0  0
  4  6  2  0  0  0  0
  6  7  1  0  0  0  0
  7  8  1  0  0  0  0
  4  9  1  0  0  0  0
  9 10  1  0  0  0  0
 10 11  1  0  0  0  0
 11 12  1  0  0  0  0
 12 13  2  0  0  0  0
 12 14  2  0  0  0  0
 14 15  1  0  0  0  0
 15 16  1  0  0  0  0
 12 17  2  0  0  0  0
 17 18  1  0  0  0  0
 18 19  1  0  0  0  0
  1 20  1  0  0  0  0
  1 21  1  0  0  0  0
  1 22  1  0  0  0  0
  2 23  1  0  0  0  0
  2 24  1  0  0  0  0
  7 25  1  0  0  0  0
  7 26  1  0  0  0  0
  8 27  1  0  0  0  0
  8 28  1  0  0  0  0
  8 29  1  0  0  0  0
 10 30  1  0  0  0  0
 10 31  1  0  0  0  0
 15 32  1  0  0  0  0
 15 33  1  0  0  0  0
 16 34  1  0  0  0  0
 16 35  1  0  0  0  0
 16 36  1  0  0  0  0
 18 37  1  0  0  0  0
 18 38  1  0  0  0  0
 19 39  1  0  0  0  0
 19 40  1  0  0  0  0
 19 41  1  0  0  0  0
M  END
