 xtb: 6.7.1 (edcfbbe)
          04092505213D

 41 40  0     0  0            999 V2000
    2.9196   -2.9575   -1.8329 C   0  0  0  0  0  0  0  0  0  0  0  0
    3.0655   -2.5011   -0.3952 C   0  0  0  0  0  0  0  0  0  0  0  0
    3.3988   -1.0929   -0.3267 O   0  0  0  0  0  0  0  0  0  0  0  0
    2.3285    0.0535   -0.0815 P   0  0  0  0  0  0  0  0  0  0  0  0
    3.2253    1.7778    0.1050 S   0  0  0  0  0  0  0  0  0  0  0  0
    1.4422   -0.4363    1.1593 O   0  0  0  0  0  0  0  0  0  0  0  0
    1.8540   -0.1723    2.5198 C   0  0  0  0  0  0  0  0  0  0  0  0
    1.1376    1.0421    3.0745 C   0  0  0  0  0  0  0  0  0  0  0  0
    0.9133   -0.1392   -1.6332 S   0  0  0  0  0  0  0  0  0  0  0  0
    0.1812    1.5067   -1.4548 C   0  0  0  0  0  0  0  0  0  0  0  0
   -0.7396    1.7322    0.0848 S   0  0  0  0  0  0  0  0  0  0  0  0
   -2.1888    0.2329   -0.2857 P   0  0  0  0  0  0  0  0  0  0  0  0
   -2.8444    0.0947   -2.1198 S   0  0  0  0  0  0  0  0  0  0  0  0
   -3.3620    0.5411    0.7325 O   0  0  0  0  0  0  0  0  0  0  0  0
   -3.1979    0.5394    2.1728 C   0  0  0  0  0  0  0  0  0  0  0  0
   -3.0115    1.9485    2.6987 C   0  0  0  0  0  0  0  0  0  0  0  0
   -1.4396   -1.0557    0.2969 O   0  0  0  0  0  0  0  0  0  0  0  0
   -1.5602   -2.3546   -0.3090 C   0  0  0  0  0  0  0  0  0  0  0  0
   -2.8956   -2.9900    0.0210 C   0  0  0  0  0  0  0  0  0  0  0  0
    3.8208   -2.7195   -2.3909 H   0  0  0  0  0  0  0  0  0  0  0  0
    2.7604   -4.0311   -1.8497 H   0  0  0  0  0  0  0  0  0  0  0  0
    2.0743   -2.4642   -2.3087 H   0  0  0  0  0  0  0  0  0  0  0  0
    3.9049   -2.9994    0.0932 H   0  0  0  0  0  0  0  0  0  0  0  0
    2.1481   -2.6767    0.1722 H   0  0  0  0  0  0  0  0  0  0  0  0
    1.5894   -1.0769    3.0704 H   0  0  0  0  0  0  0  0  0  0  0  0
    2.9387   -0.0288    2.5449 H   0  0  0  0  0  0  0  0  0  0  0  0
    0.0621    0.9080    3.0020 H   0  0  0  0  0  0  0  0  0  0  0  0
    1.4167    1.1775    4.1144 H   0  0  0  0  0  0  0  0  0  0  0  0
    1.4148    1.9308    2.5117 H   0  0  0  0  0  0  0  0  0  0  0  0
   -0.4920    1.6342   -2.3023 H   0  0  0  0  0  0  0  0  0  0  0  0
    0.9731    2.2560   -1.4559 H   0  0  0  0  0  0  0  0  0  0  0  0
   -4.1232    0.0988    2.5482 H   0  0  0  0  0  0  0  0  0  0  0  0
   -2.3515   -0.1012    2.4318 H   0  0  0  0  0  0  0  0  0  0  0  0
   -3.8457    2.5726    2.3908 H   0  0  0  0  0  0  0  0  0  0  0  0
   -2.9665    1.9202    3.7831 H   0  0  0  0  0  0  0  0  0  0  0  0
   -2.0916    2.3849    2.3140 H   0  0  0  0  0  0  0  0  0  0  0  0
   -1.4368   -2.2507   -1.3915 H   0  0  0  0  0  0  0  0  0  0  0  0
   -0.7255   -2.9226    0.1044 H   0  0  0  0  0  0  0  0  0  0  0  0
   -3.7009   -2.3757   -0.3810 H   0  0  0  0  0  0  0  0  0  0  0  0
   -2.9466   -3.9762   -0.4294 H   0  0  0  0  0  0  0  0  0  0  0  0
   -3.0211   -3.0772    1.0970 H   0  0  0  0  0  0  0  0  0  0  0  0
  1  2  1  0  0  0  0
  2  3  1  0  0  0  0
  3  4  2  0  0  0  0
  4  5  2  0  0  0  0
  4  6  1  0  0  0  0
  6  7  1  0  0  0  0
  7  8  1  0  0  0  0
  4  9  1  0  0  0  0
  9 10  1  0  0  0  0
 10 11  1  0  0  0  0
 11 12  1  0  0  0  0
 12 13  2  0  0  0  0
 12 14  2  0  0  0  0
 14 15  1  0  0  0  0
 15 16  1  0  0  0  0
 12 17  1  0  0  0  0
 17 18  1  0  0  0  0
 18 19  1  0  0  0  0
  1 20  1  0  0  0  0
  1 21  1  0  0  0  0
  1 22  1  0  0  0  0
  2 23  1  0  0  0  0
  2 24  1  0  0  0  0
  7 25  1  0  0  0  0
  7 26  1  0  0  0  0
  8 27  1  0  0  0  0
  8 28  1  0  0  0  0
  8 29  1  0  0  0  0
 10 30  1  0  0  0  0
 10 31  1  0  0  0  0
 15 32  1  0  0  0  0
 15 33  1  0  0  0  0
 16 34  1  0  0  0  0
 16 35  1  0  0  0  0
 16 36  1  0  0  0  0
 18 37  1  0  0  0  0
 18 38  1  0  0  0  0
 19 39  1  0  0  0  0
 19 40  1  0  0  0  0
 19 41  1  0  0  0  0
M  END
