 xtb: 6.7.1 (edcfbbe)
          04092505213D

 41 40  0     0  0            999 V2000
    2.2608   -3.2806   -1.9512 C   0  0  0  0  0  0  0  0  0  0  0  0
    1.6497   -2.1775   -1.1118 C   0  0  0  0  0  0  0  0  0  0  0  0
    2.7035   -1.2652   -0.7481 O   0  0  0  0  0  0  0  0  0  0  0  0
    2.3956    0.1526   -0.0953 P   0  0  0  0  0  0  0  0  0  0  0  0
    1.1346    1.2801   -1.0931 S   0  0  0  0  0  0  0  0  0  0  0  0
    3.8236    0.8022   -0.0279 O   0  0  0  0  0  0  0  0  0  0  0  0
    5.0599    0.0876    0.2348 C   0  0  0  0  0  0  0  0  0  0  0  0
    5.0773   -0.5565    1.6039 C   0  0  0  0  0  0  0  0  0  0  0  0
    1.8180   -0.2774    1.9147 S   0  0  0  0  0  0  0  0  0  0  0  0
    0.1057    0.2778    1.8980 C   0  0  0  0  0  0  0  0  0  0  0  0
   -0.9800   -0.8053    0.9101 S   0  0  0  0  0  0  0  0  0  0  0  0
   -2.1759    0.6574   -0.0843 P   0  0  0  0  0  0  0  0  0  0  0  0
   -1.9896    2.4950    0.5538 S   0  0  0  0  0  0  0  0  0  0  0  0
   -3.6358    0.0442    0.0894 O   0  0  0  0  0  0  0  0  0  0  0  0
   -4.2914    0.0366    1.3730 C   0  0  0  0  0  0  0  0  0  0  0  0
   -5.7565   -0.2762    1.1455 C   0  0  0  0  0  0  0  0  0  0  0  0
   -1.9458    0.4959   -1.6288 O   0  0  0  0  0  0  0  0  0  0  0  0
   -2.0424   -0.7726   -2.3253 C   0  0  0  0  0  0  0  0  0  0  0  0
   -3.4062   -0.9350   -2.9637 C   0  0  0  0  0  0  0  0  0  0  0  0
    1.4842   -3.9843   -2.2316 H   0  0  0  0  0  0  0  0  0  0  0  0
    2.7084   -2.8628   -2.8485 H   0  0  0  0  0  0  0  0  0  0  0  0
    3.0269   -3.7986   -1.3822 H   0  0  0  0  0  0  0  0  0  0  0  0
    1.1999   -2.5718   -0.1953 H   0  0  0  0  0  0  0  0  0  0  0  0
    0.8883   -1.6215   -1.6688 H   0  0  0  0  0  0  0  0  0  0  0  0
    5.1951   -0.6557   -0.5523 H   0  0  0  0  0  0  0  0  0  0  0  0
    5.8170    0.8680    0.1460 H   0  0  0  0  0  0  0  0  0  0  0  0
    4.3190   -1.3349    1.6671 H   0  0  0  0  0  0  0  0  0  0  0  0
    6.0538   -0.9996    1.7735 H   0  0  0  0  0  0  0  0  0  0  0  0
    4.8806    0.1832    2.3755 H   0  0  0  0  0  0  0  0  0  0  0  0
    0.0354    1.2898    1.4918 H   0  0  0  0  0  0  0  0  0  0  0  0
   -0.2247    0.2468    2.9334 H   0  0  0  0  0  0  0  0  0  0  0  0
   -3.8123   -0.7243    1.9957 H   0  0  0  0  0  0  0  0  0  0  0  0
   -4.1566    1.0194    1.8371 H   0  0  0  0  0  0  0  0  0  0  0  0
   -5.8611   -1.2481    0.6722 H   0  0  0  0  0  0  0  0  0  0  0  0
   -6.2702   -0.2846    2.1010 H   0  0  0  0  0  0  0  0  0  0  0  0
   -6.2033    0.4793    0.5053 H   0  0  0  0  0  0  0  0  0  0  0  0
   -1.2522   -0.7253   -3.0776 H   0  0  0  0  0  0  0  0  0  0  0  0
   -1.8363   -1.5815   -1.6177 H   0  0  0  0  0  0  0  0  0  0  0  0
   -3.6059   -0.0996   -3.6291 H   0  0  0  0  0  0  0  0  0  0  0  0
   -3.4221   -1.8597   -3.5320 H   0  0  0  0  0  0  0  0  0  0  0  0
   -4.1778   -0.9665   -2.1995 H   0  0  0  0  0  0  0  0  0  0  0  0
  1  2  1  0  0  0  0
  2  3  1  0  0  0  0
  3  4  2  0  0  0  0
  4  5  2  0  0  0  0
  4  6  2  0  0  0  0
  6  7  1  0  0  0  0
  7  8  1  0  0  0  0
  4  9  1  0  0  0  0
  9 10  1  0  0  0  0
 10 11  1  0  0  0  0
 11 12  1  0  0  0  0
 12 13  2  0  0  0  0
 12 14  2  0  0  0  0
 14 15  1  0  0  0  0
 15 16  1  0  0  0  0
 12 17  2  0  0  0  0
 17 18  1  0  0  0  0
 18 19  1  0  0  0  0
  1 20  1  0  0  0  0
  1 21  1  0  0  0  0
  1 22  1  0  0  0  0
  2 23  1  0  0  0  0
  2 24  1  0  0  0  0
  7 25  1  0  0  0  0
  7 26  1  0  0  0  0
  8 27  1  0  0  0  0
  8 28  1  0  0  0  0
  8 29  1  0  0  0  0
 10 30  1  0  0  0  0
 10 31  1  0  0  0  0
 15 32  1  0  0  0  0
 15 33  1  0  0  0  0
 16 34  1  0  0  0  0
 16 35  1  0  0  0  0
 16 36  1  0  0  0  0
 18 37  1  0  0  0  0
 18 38  1  0  0  0  0
 19 39  1  0  0  0  0
 19 40  1  0  0  0  0
 19 41  1  0  0  0  0
M  END
