 xtb: 6.7.1 (edcfbbe)
          04092505213D

 41 40  0     0  0            999 V2000
    5.5874   -0.4384   -1.1037 C   0  0  0  0  0  0  0  0  0  0  0  0
    4.3372    0.4163   -1.0588 C   0  0  0  0  0  0  0  0  0  0  0  0
    3.3799   -0.2459   -0.2117 O   0  0  0  0  0  0  0  0  0  0  0  0
    1.9943    0.4557    0.1505 P   0  0  0  0  0  0  0  0  0  0  0  0
    2.1477    2.2862    0.8254 S   0  0  0  0  0  0  0  0  0  0  0  0
    1.3684   -0.6329    1.1034 O   0  0  0  0  0  0  0  0  0  0  0  0
    1.3519   -0.4797    2.5368 C   0  0  0  0  0  0  0  0  0  0  0  0
    2.7280   -0.7106    3.1223 C   0  0  0  0  0  0  0  0  0  0  0  0
    0.8549    0.2562   -1.6305 S   0  0  0  0  0  0  0  0  0  0  0  0
    0.4716   -1.5145   -1.5931 C   0  0  0  0  0  0  0  0  0  0  0  0
   -0.7542   -2.0035   -0.3310 S   0  0  0  0  0  0  0  0  0  0  0  0
   -2.0042   -0.3130   -0.3302 P   0  0  0  0  0  0  0  0  0  0  0  0
   -2.6303    0.3824   -2.0577 S   0  0  0  0  0  0  0  0  0  0  0  0
   -1.2106    0.6961    0.6083 O   0  0  0  0  0  0  0  0  0  0  0  0
   -1.5067    2.1086    0.5860 C   0  0  0  0  0  0  0  0  0  0  0  0
   -2.8702    2.4040    1.1705 C   0  0  0  0  0  0  0  0  0  0  0  0
   -3.1643   -0.7901    0.6431 O   0  0  0  0  0  0  0  0  0  0  0  0
   -4.2453   -1.6286    0.1857 C   0  0  0  0  0  0  0  0  0  0  0  0
   -5.4032   -1.4683    1.1501 C   0  0  0  0  0  0  0  0  0  0  0  0
    5.3524   -1.4221   -1.4995 H   0  0  0  0  0  0  0  0  0  0  0  0
    6.3219    0.0401   -1.7430 H   0  0  0  0  0  0  0  0  0  0  0  0
    5.9988   -0.5496   -0.1049 H   0  0  0  0  0  0  0  0  0  0  0  0
    3.8967    0.5386   -2.0537 H   0  0  0  0  0  0  0  0  0  0  0  0
    4.5402    1.4081   -0.6417 H   0  0  0  0  0  0  0  0  0  0  0  0
    0.9874    0.5235    2.7786 H   0  0  0  0  0  0  0  0  0  0  0  0
    0.6301   -1.2267    2.8705 H   0  0  0  0  0  0  0  0  0  0  0  0
    2.6728   -0.6619    4.2052 H   0  0  0  0  0  0  0  0  0  0  0  0
    3.1057   -1.6835    2.8201 H   0  0  0  0  0  0  0  0  0  0  0  0
    3.4103    0.0605    2.7660 H   0  0  0  0  0  0  0  0  0  0  0  0
    1.3713   -2.0884   -1.3831 H   0  0  0  0  0  0  0  0  0  0  0  0
    0.0739   -1.7415   -2.5805 H   0  0  0  0  0  0  0  0  0  0  0  0
   -0.7023    2.5610    1.1698 H   0  0  0  0  0  0  0  0  0  0  0  0
   -1.4398    2.4592   -0.4500 H   0  0  0  0  0  0  0  0  0  0  0  0
   -3.0075    3.4792    1.2296 H   0  0  0  0  0  0  0  0  0  0  0  0
   -3.6435    1.9813    0.5301 H   0  0  0  0  0  0  0  0  0  0  0  0
   -2.9547    1.9698    2.1631 H   0  0  0  0  0  0  0  0  0  0  0  0
   -4.5201   -1.3199   -0.8287 H   0  0  0  0  0  0  0  0  0  0  0  0
   -3.8860   -2.6607    0.1609 H   0  0  0  0  0  0  0  0  0  0  0  0
   -6.2138   -2.1205    0.8425 H   0  0  0  0  0  0  0  0  0  0  0  0
   -5.0873   -1.7341    2.1546 H   0  0  0  0  0  0  0  0  0  0  0  0
   -5.7523   -0.4396    1.1512 H   0  0  0  0  0  0  0  0  0  0  0  0
  1  2  1  0  0  0  0
  2  3  1  0  0  0  0
  3  4  1  0  0  0  0
  4  5  2  0  0  0  0
  4  6  2  0  0  0  0
  6  7  1  0  0  0  0
  7  8  1  0  0  0  0
  4  9  1  0  0  0  0
  9 10  1  0  0  0  0
 10 11  1  0  0  0  0
 11 12  1  0  0  0  0
 12 13  2  0  0  0  0
 12 14  1  0  0  0  0
 14 15  1  0  0  0  0
 15 16  1  0  0  0  0
 12 17  2  0  0  0  0
 17 18  1  0  0  0  0
 18 19  1  0  0  0  0
  1 20  1  0  0  0  0
  1 21  1  0  0  0  0
  1 22  1  0  0  0  0
  2 23  1  0  0  0  0
  2 24  1  0  0  0  0
  7 25  1  0  0  0  0
  7 26  1  0  0  0  0
  8 27  1  0  0  0  0
  8 28  1  0  0  0  0
  8 29  1  0  0  0  0
 10 30  1  0  0  0  0
 10 31  1  0  0  0  0
 15 32  1  0  0  0  0
 15 33  1  0  0  0  0
 16 34  1  0  0  0  0
 16 35  1  0  0  0  0
 16 36  1  0  0  0  0
 18 37  1  0  0  0  0
 18 38  1  0  0  0  0
 19 39  1  0  0  0  0
 19 40  1  0  0  0  0
 19 41  1  0  0  0  0
M  END
