 xtb: 6.7.1 (edcfbbe)
          04092505213D

 41 40  0     0  0            999 V2000
    0.5036   -1.7941    2.1832 C   0  0  0  0  0  0  0  0  0  0  0  0
    1.8752   -1.1641    2.3136 C   0  0  0  0  0  0  0  0  0  0  0  0
    2.2112   -0.3494    1.1804 O   0  0  0  0  0  0  0  0  0  0  0  0
    2.4274   -0.9676   -0.2753 P   0  0  0  0  0  0  0  0  0  0  0  0
    3.1693   -2.7789   -0.3102 S   0  0  0  0  0  0  0  0  0  0  0  0
    3.2980    0.1624   -0.9747 O   0  0  0  0  0  0  0  0  0  0  0  0
    4.7402    0.1274   -0.9528 C   0  0  0  0  0  0  0  0  0  0  0  0
    5.2915    0.3496    0.4398 C   0  0  0  0  0  0  0  0  0  0  0  0
    0.6172   -0.6510   -1.3171 S   0  0  0  0  0  0  0  0  0  0  0  0
    0.4382    1.1384   -1.0353 C   0  0  0  0  0  0  0  0  0  0  0  0
   -0.3410    1.5518    0.5464 S   0  0  0  0  0  0  0  0  0  0  0  0
   -2.2786    0.9127    0.0294 P   0  0  0  0  0  0  0  0  0  0  0  0
   -2.8601    1.2577   -1.8166 S   0  0  0  0  0  0  0  0  0  0  0  0
   -3.2103    1.5703    1.1374 O   0  0  0  0  0  0  0  0  0  0  0  0
   -3.6755    2.9321    1.0427 C   0  0  0  0  0  0  0  0  0  0  0  0
   -4.9529    3.0489    1.8499 C   0  0  0  0  0  0  0  0  0  0  0  0
   -2.2507   -0.5922    0.5132 O   0  0  0  0  0  0  0  0  0  0  0  0
   -3.2097   -1.5719    0.0525 C   0  0  0  0  0  0  0  0  0  0  0  0
   -2.6170   -2.4096   -1.0625 C   0  0  0  0  0  0  0  0  0  0  0  0
   -0.2613   -1.0327    2.0514 H   0  0  0  0  0  0  0  0  0  0  0  0
    0.4875   -2.4615    1.3208 H   0  0  0  0  0  0  0  0  0  0  0  0
    0.2847   -2.3700    3.0767 H   0  0  0  0  0  0  0  0  0  0  0  0
    2.6382   -1.9426    2.4157 H   0  0  0  0  0  0  0  0  0  0  0  0
    1.9249   -0.4750    3.1576 H   0  0  0  0  0  0  0  0  0  0  0  0
    5.0677   -0.8392   -1.3482 H   0  0  0  0  0  0  0  0  0  0  0  0
    5.0299    0.9258   -1.6374 H   0  0  0  0  0  0  0  0  0  0  0  0
    6.3728    0.4309    0.3888 H   0  0  0  0  0  0  0  0  0  0  0  0
    4.8791    1.2591    0.8688 H   0  0  0  0  0  0  0  0  0  0  0  0
    5.0308   -0.4925    1.0795 H   0  0  0  0  0  0  0  0  0  0  0  0
   -0.1940    1.5042   -1.8451 H   0  0  0  0  0  0  0  0  0  0  0  0
    1.4162    1.6087   -1.0499 H   0  0  0  0  0  0  0  0  0  0  0  0
   -2.8924    3.5837    1.4380 H   0  0  0  0  0  0  0  0  0  0  0  0
   -3.8455    3.1712   -0.0126 H   0  0  0  0  0  0  0  0  0  0  0  0
   -5.3009    4.0761    1.8185 H   0  0  0  0  0  0  0  0  0  0  0  0
   -5.7189    2.3988    1.4364 H   0  0  0  0  0  0  0  0  0  0  0  0
   -4.7668    2.7620    2.8807 H   0  0  0  0  0  0  0  0  0  0  0  0
   -3.4327   -2.1758    0.9331 H   0  0  0  0  0  0  0  0  0  0  0  0
   -4.1155   -1.0605   -0.2840 H   0  0  0  0  0  0  0  0  0  0  0  0
   -2.4016   -1.7867   -1.9284 H   0  0  0  0  0  0  0  0  0  0  0  0
   -1.6899   -2.8725   -0.7357 H   0  0  0  0  0  0  0  0  0  0  0  0
   -3.3250   -3.1813   -1.3467 H   0  0  0  0  0  0  0  0  0  0  0  0
  1  2  1  0  0  0  0
  2  3  1  0  0  0  0
  3  4  2  0  0  0  0
  4  5  2  0  0  0  0
  4  6  2  0  0  0  0
  6  7  1  0  0  0  0
  7  8  1  0  0  0  0
  4  9  1  0  0  0  0
  9 10  1  0  0  0  0
 10 11  1  0  0  0  0
 11 12  1  0  0  0  0
 12 13  2  0  0  0  0
 12 14  2  0  0  0  0
 14 15  1  0  0  0  0
 15 16  1  0  0  0  0
 12 17  2  0  0  0  0
 17 18  1  0  0  0  0
 18 19  1  0  0  0  0
  1 20  1  0  0  0  0
  1 21  1  0  0  0  0
  1 22  1  0  0  0  0
  2 23  1  0  0  0  0
  2 24  1  0  0  0  0
  7 25  1  0  0  0  0
  7 26  1  0  0  0  0
  8 27  1  0  0  0  0
  8 28  1  0  0  0  0
  8 29  1  0  0  0  0
 10 30  1  0  0  0  0
 10 31  1  0  0  0  0
 15 32  1  0  0  0  0
 15 33  1  0  0  0  0
 16 34  1  0  0  0  0
 16 35  1  0  0  0  0
 16 36  1  0  0  0  0
 18 37  1  0  0  0  0
 18 38  1  0  0  0  0
 19 39  1  0  0  0  0
 19 40  1  0  0  0  0
 19 41  1  0  0  0  0
M  END
