 xtb: 6.7.1 (edcfbbe)
          04092505203D

 41 40  0     0  0            999 V2000
    3.3705   -1.1796   -3.0224 C   0  0  0  0  0  0  0  0  0  0  0  0
    4.1546   -1.0109   -1.7385 C   0  0  0  0  0  0  0  0  0  0  0  0
    3.6143    0.0138   -0.8813 O   0  0  0  0  0  0  0  0  0  0  0  0
    2.0946    0.1326   -0.4324 P   0  0  0  0  0  0  0  0  0  0  0  0
    0.8635    0.9526   -1.7154 S   0  0  0  0  0  0  0  0  0  0  0  0
    2.2040    1.0450    0.8444 O   0  0  0  0  0  0  0  0  0  0  0  0
    3.0727    0.7570    1.9708 C   0  0  0  0  0  0  0  0  0  0  0  0
    2.5862    1.5789    3.1461 C   0  0  0  0  0  0  0  0  0  0  0  0
    1.6801   -1.8411    0.2434 S   0  0  0  0  0  0  0  0  0  0  0  0
    0.0392   -1.5900    0.9671 C   0  0  0  0  0  0  0  0  0  0  0  0
   -1.2990   -1.4328   -0.2553 S   0  0  0  0  0  0  0  0  0  0  0  0
   -2.0393    0.4992    0.2507 P   0  0  0  0  0  0  0  0  0  0  0  0
   -1.0197    1.4936    1.5935 S   0  0  0  0  0  0  0  0  0  0  0  0
   -3.5561    0.2551    0.6878 O   0  0  0  0  0  0  0  0  0  0  0  0
   -3.9571   -0.0420    2.0332 C   0  0  0  0  0  0  0  0  0  0  0  0
   -3.4969   -1.4134    2.4868 C   0  0  0  0  0  0  0  0  0  0  0  0
   -2.2489    1.2942   -1.0879 O   0  0  0  0  0  0  0  0  0  0  0  0
   -2.5633    0.7450   -2.3885 C   0  0  0  0  0  0  0  0  0  0  0  0
   -3.7883   -0.1423   -2.3683 C   0  0  0  0  0  0  0  0  0  0  0  0
    3.8654   -1.9105   -3.6538 H   0  0  0  0  0  0  0  0  0  0  0  0
    2.3608   -1.5249   -2.8030 H   0  0  0  0  0  0  0  0  0  0  0  0
    3.3000   -0.2322   -3.5520 H   0  0  0  0  0  0  0  0  0  0  0  0
    5.1728   -0.6697   -1.9336 H   0  0  0  0  0  0  0  0  0  0  0  0
    4.1765   -1.9462   -1.1726 H   0  0  0  0  0  0  0  0  0  0  0  0
    3.0271   -0.3154    2.1835 H   0  0  0  0  0  0  0  0  0  0  0  0
    4.0907    1.0253    1.6821 H   0  0  0  0  0  0  0  0  0  0  0  0
    3.1831    1.3429    4.0208 H   0  0  0  0  0  0  0  0  0  0  0  0
    2.6720    2.6383    2.9221 H   0  0  0  0  0  0  0  0  0  0  0  0
    1.5399    1.3613    3.3482 H   0  0  0  0  0  0  0  0  0  0  0  0
    0.0446   -0.6867    1.5855 H   0  0  0  0  0  0  0  0  0  0  0  0
   -0.1489   -2.4832    1.5575 H   0  0  0  0  0  0  0  0  0  0  0  0
   -3.5584    0.7355    2.6930 H   0  0  0  0  0  0  0  0  0  0  0  0
   -5.0455    0.0251    1.9987 H   0  0  0  0  0  0  0  0  0  0  0  0
   -2.4153   -1.4199    2.6089 H   0  0  0  0  0  0  0  0  0  0  0  0
   -3.9585   -1.6462    3.4410 H   0  0  0  0  0  0  0  0  0  0  0  0
   -3.7779   -2.1676    1.7563 H   0  0  0  0  0  0  0  0  0  0  0  0
   -2.7143    1.6358   -3.0001 H   0  0  0  0  0  0  0  0  0  0  0  0
   -1.6810    0.2080   -2.7482 H   0  0  0  0  0  0  0  0  0  0  0  0
   -4.6349    0.3966   -1.9506 H   0  0  0  0  0  0  0  0  0  0  0  0
   -4.0182   -0.4478   -3.3843 H   0  0  0  0  0  0  0  0  0  0  0  0
   -3.6014   -1.0299   -1.7658 H   0  0  0  0  0  0  0  0  0  0  0  0
  1  2  1  0  0  0  0
  2  3  1  0  0  0  0
  3  4  2  0  0  0  0
  4  5  2  0  0  0  0
  4  6  2  0  0  0  0
  6  7  1  0  0  0  0
  7  8  1  0  0  0  0
  4  9  1  0  0  0  0
  9 10  1  0  0  0  0
 10 11  1  0  0  0  0
 11 12  1  0  0  0  0
 12 13  2  0  0  0  0
 12 14  2  0  0  0  0
 14 15  1  0  0  0  0
 15 16  1  0  0  0  0
 12 17  2  0  0  0  0
 17 18  1  0  0  0  0
 18 19  1  0  0  0  0
  1 20  1  0  0  0  0
  1 21  1  0  0  0  0
  1 22  1  0  0  0  0
  2 23  1  0  0  0  0
  2 24  1  0  0  0  0
  7 25  1  0  0  0  0
  7 26  1  0  0  0  0
  8 27  1  0  0  0  0
  8 28  1  0  0  0  0
  8 29  1  0  0  0  0
 10 30  1  0  0  0  0
 10 31  1  0  0  0  0
 15 32  1  0  0  0  0
 15 33  1  0  0  0  0
 16 34  1  0  0  0  0
 16 35  1  0  0  0  0
 16 36  1  0  0  0  0
 18 37  1  0  0  0  0
 18 38  1  0  0  0  0
 19 39  1  0  0  0  0
 19 40  1  0  0  0  0
 19 41  1  0  0  0  0
M  END
