 xtb: 6.7.1 (edcfbbe)
          04092505213D

 41 40  0     0  0            999 V2000
    0.7857   -2.8488    1.4671 C   0  0  0  0  0  0  0  0  0  0  0  0
    1.6749   -1.7332    1.9788 C   0  0  0  0  0  0  0  0  0  0  0  0
    1.3382   -0.4825    1.3351 O   0  0  0  0  0  0  0  0  0  0  0  0
    2.1882    0.1241    0.1494 P   0  0  0  0  0  0  0  0  0  0  0  0
    3.0992   -1.1353   -1.0508 S   0  0  0  0  0  0  0  0  0  0  0  0
    3.1715    1.0799    0.9558 O   0  0  0  0  0  0  0  0  0  0  0  0
    4.2525    1.7832    0.3104 C   0  0  0  0  0  0  0  0  0  0  0  0
    5.2576    2.1730    1.3754 C   0  0  0  0  0  0  0  0  0  0  0  0
    0.8257    1.4722   -0.7266 S   0  0  0  0  0  0  0  0  0  0  0  0
    0.1917    0.3648   -2.0140 C   0  0  0  0  0  0  0  0  0  0  0  0
   -0.6340   -1.1030   -1.3420 S   0  0  0  0  0  0  0  0  0  0  0  0
   -2.1690   -0.1009   -0.3026 P   0  0  0  0  0  0  0  0  0  0  0  0
   -2.8806    1.5399   -1.1137 S   0  0  0  0  0  0  0  0  0  0  0  0
   -1.5630    0.0066    1.1526 O   0  0  0  0  0  0  0  0  0  0  0  0
   -2.0529    0.9478    2.1357 C   0  0  0  0  0  0  0  0  0  0  0  0
   -1.1264    2.1434    2.2313 C   0  0  0  0  0  0  0  0  0  0  0  0
   -3.2578   -1.2392   -0.0811 O   0  0  0  0  0  0  0  0  0  0  0  0
   -4.1954   -1.6140   -1.1107 C   0  0  0  0  0  0  0  0  0  0  0  0
   -5.3871   -2.2699   -0.4427 C   0  0  0  0  0  0  0  0  0  0  0  0
   -0.2597   -2.5646    1.5619 H   0  0  0  0  0  0  0  0  0  0  0  0
    0.9969   -3.0482    0.4183 H   0  0  0  0  0  0  0  0  0  0  0  0
    0.9704   -3.7485    2.0451 H   0  0  0  0  0  0  0  0  0  0  0  0
    2.7292   -1.9603    1.7977 H   0  0  0  0  0  0  0  0  0  0  0  0
    1.5149   -1.5493    3.0423 H   0  0  0  0  0  0  0  0  0  0  0  0
    4.6985    1.1223   -0.4406 H   0  0  0  0  0  0  0  0  0  0  0  0
    3.8359    2.6625   -0.1877 H   0  0  0  0  0  0  0  0  0  0  0  0
    5.6570    1.2847    1.8566 H   0  0  0  0  0  0  0  0  0  0  0  0
    6.0688    2.7256    0.9132 H   0  0  0  0  0  0  0  0  0  0  0  0
    4.7788    2.7952    2.1259 H   0  0  0  0  0  0  0  0  0  0  0  0
    1.0158   -0.0011   -2.6254 H   0  0  0  0  0  0  0  0  0  0  0  0
   -0.5150    0.9504   -2.6009 H   0  0  0  0  0  0  0  0  0  0  0  0
   -3.0656    1.2592    1.8645 H   0  0  0  0  0  0  0  0  0  0  0  0
   -2.0782    0.3848    3.0700 H   0  0  0  0  0  0  0  0  0  0  0  0
   -1.1538    2.7164    1.3065 H   0  0  0  0  0  0  0  0  0  0  0  0
   -1.4428    2.7776    3.0531 H   0  0  0  0  0  0  0  0  0  0  0  0
   -0.1054    1.8101    2.4022 H   0  0  0  0  0  0  0  0  0  0  0  0
   -4.4891   -0.7128   -1.6597 H   0  0  0  0  0  0  0  0  0  0  0  0
   -3.6906   -2.3022   -1.7935 H   0  0  0  0  0  0  0  0  0  0  0  0
   -6.0935   -2.5830   -1.2044 H   0  0  0  0  0  0  0  0  0  0  0  0
   -5.0624   -3.1362    0.1263 H   0  0  0  0  0  0  0  0  0  0  0  0
   -5.8726   -1.5682    0.2297 H   0  0  0  0  0  0  0  0  0  0  0  0
  1  2  1  0  0  0  0
  2  3  1  0  0  0  0
  3  4  2  0  0  0  0
  4  5  2  0  0  0  0
  4  6  2  0  0  0  0
  6  7  1  0  0  0  0
  7  8  1  0  0  0  0
  4  9  1  0  0  0  0
  9 10  1  0  0  0  0
 10 11  1  0  0  0  0
 11 12  1  0  0  0  0
 12 13  2  0  0  0  0
 12 14  2  0  0  0  0
 14 15  1  0  0  0  0
 15 16  1  0  0  0  0
 12 17  2  0  0  0  0
 17 18  1  0  0  0  0
 18 19  1  0  0  0  0
  1 20  1  0  0  0  0
  1 21  1  0  0  0  0
  1 22  1  0  0  0  0
  2 23  1  0  0  0  0
  2 24  1  0  0  0  0
  7 25  1  0  0  0  0
  7 26  1  0  0  0  0
  8 27  1  0  0  0  0
  8 28  1  0  0  0  0
  8 29  1  0  0  0  0
 10 30  1  0  0  0  0
 10 31  1  0  0  0  0
 15 32  1  0  0  0  0
 15 33  1  0  0  0  0
 16 34  1  0  0  0  0
 16 35  1  0  0  0  0
 16 36  1  0  0  0  0
 18 37  1  0  0  0  0
 18 38  1  0  0  0  0
 19 39  1  0  0  0  0
 19 40  1  0  0  0  0
 19 41  1  0  0  0  0
M  END
