 xtb: 6.7.1 (edcfbbe)
          04092505213D

 41 40  0     0  0            999 V2000
    5.3842   -0.2650   -0.9717 C   0  0  0  0  0  0  0  0  0  0  0  0
    4.0318    0.2961   -1.3583 C   0  0  0  0  0  0  0  0  0  0  0  0
    3.2848    0.6934   -0.1776 O   0  0  0  0  0  0  0  0  0  0  0  0
    2.2418   -0.2363    0.5455 P   0  0  0  0  0  0  0  0  0  0  0  0
    1.6206    0.5243    2.2376 S   0  0  0  0  0  0  0  0  0  0  0  0
    2.9909   -1.6293    0.6726 O   0  0  0  0  0  0  0  0  0  0  0  0
    2.3730   -2.7430    1.3510 C   0  0  0  0  0  0  0  0  0  0  0  0
    3.4606   -3.7394    1.6974 C   0  0  0  0  0  0  0  0  0  0  0  0
    0.7664   -0.6904   -0.9375 S   0  0  0  0  0  0  0  0  0  0  0  0
    0.1848    0.9958   -1.2616 C   0  0  0  0  0  0  0  0  0  0  0  0
   -0.8540    1.6969    0.0528 S   0  0  0  0  0  0  0  0  0  0  0  0
   -2.6248    0.5546   -0.2860 P   0  0  0  0  0  0  0  0  0  0  0  0
   -2.7206   -0.3833   -2.0090 S   0  0  0  0  0  0  0  0  0  0  0  0
   -3.8198    1.5536   -0.0150 O   0  0  0  0  0  0  0  0  0  0  0  0
   -4.4343    2.3044   -1.0764 C   0  0  0  0  0  0  0  0  0  0  0  0
   -3.5281    3.4056   -1.5905 C   0  0  0  0  0  0  0  0  0  0  0  0
   -2.8416   -0.2788    1.0436 O   0  0  0  0  0  0  0  0  0  0  0  0
   -1.8995   -1.1913    1.6272 C   0  0  0  0  0  0  0  0  0  0  0  0
   -1.8543   -2.5143    0.8871 C   0  0  0  0  0  0  0  0  0  0  0  0
    5.9311    0.4594   -0.3744 H   0  0  0  0  0  0  0  0  0  0  0  0
    5.2629   -1.1762   -0.3928 H   0  0  0  0  0  0  0  0  0  0  0  0
    5.9474   -0.4844   -1.8735 H   0  0  0  0  0  0  0  0  0  0  0  0
    3.4456   -0.4352   -1.9209 H   0  0  0  0  0  0  0  0  0  0  0  0
    4.1352    1.2164   -1.9360 H   0  0  0  0  0  0  0  0  0  0  0  0
    1.8708   -2.3679    2.2490 H   0  0  0  0  0  0  0  0  0  0  0  0
    1.6304   -3.1785    0.6771 H   0  0  0  0  0  0  0  0  0  0  0  0
    4.1936   -3.2788    2.3536 H   0  0  0  0  0  0  0  0  0  0  0  0
    3.0150   -4.5906    2.2015 H   0  0  0  0  0  0  0  0  0  0  0  0
    3.9577   -4.0782    0.7932 H   0  0  0  0  0  0  0  0  0  0  0  0
   -0.3935    0.9282   -2.1831 H   0  0  0  0  0  0  0  0  0  0  0  0
    1.0339    1.6666   -1.3671 H   0  0  0  0  0  0  0  0  0  0  0  0
   -4.7002    1.6148   -1.8845 H   0  0  0  0  0  0  0  0  0  0  0  0
   -5.3398    2.7080   -0.6214 H   0  0  0  0  0  0  0  0  0  0  0  0
   -2.6674    2.9723   -2.0979 H   0  0  0  0  0  0  0  0  0  0  0  0
   -4.0769    4.0241   -2.2934 H   0  0  0  0  0  0  0  0  0  0  0  0
   -3.1769    4.0200   -0.7652 H   0  0  0  0  0  0  0  0  0  0  0  0
   -0.9107   -0.7191    1.6649 H   0  0  0  0  0  0  0  0  0  0  0  0
   -2.2628   -1.3217    2.6484 H   0  0  0  0  0  0  0  0  0  0  0  0
   -1.2112   -3.2025    1.4268 H   0  0  0  0  0  0  0  0  0  0  0  0
   -2.8545   -2.9339    0.8190 H   0  0  0  0  0  0  0  0  0  0  0  0
   -1.4655   -2.3780   -0.1205 H   0  0  0  0  0  0  0  0  0  0  0  0
  1  2  1  0  0  0  0
  2  3  1  0  0  0  0
  3  4  2  0  0  0  0
  4  5  2  0  0  0  0
  4  6  2  0  0  0  0
  6  7  1  0  0  0  0
  7  8  1  0  0  0  0
  4  9  1  0  0  0  0
  9 10  1  0  0  0  0
 10 11  1  0  0  0  0
 11 12  1  0  0  0  0
 12 13  2  0  0  0  0
 12 14  2  0  0  0  0
 14 15  1  0  0  0  0
 15 16  1  0  0  0  0
 12 17  2  0  0  0  0
 17 18  1  0  0  0  0
 18 19  1  0  0  0  0
  1 20  1  0  0  0  0
  1 21  1  0  0  0  0
  1 22  1  0  0  0  0
  2 23  1  0  0  0  0
  2 24  1  0  0  0  0
  7 25  1  0  0  0  0
  7 26  1  0  0  0  0
  8 27  1  0  0  0  0
  8 28  1  0  0  0  0
  8 29  1  0  0  0  0
 10 30  1  0  0  0  0
 10 31  1  0  0  0  0
 15 32  1  0  0  0  0
 15 33  1  0  0  0  0
 16 34  1  0  0  0  0
 16 35  1  0  0  0  0
 16 36  1  0  0  0  0
 18 37  1  0  0  0  0
 18 38  1  0  0  0  0
 19 39  1  0  0  0  0
 19 40  1  0  0  0  0
 19 41  1  0  0  0  0
M  END
