 xtb: 6.7.1 (edcfbbe)
          04032519463D

 11 10  0     0  0            999 V2000
   -1.2612    0.2722    0.0000 C   0  0  0  0  0  0  0  0  0  0  0  0
    0.0000   -0.5838   -0.0000 C   0  0  0  0  0  0  0  0  0  0  0  0
    1.2611    0.2722    0.0000 C   0  0  0  0  0  0  0  0  0  0  0  0
   -1.2880    0.9086   -0.8818 H   0  0  0  0  0  0  0  0  0  0  0  0
   -2.1503   -0.3537   -0.0000 H   0  0  0  0  0  0  0  0  0  0  0  0
   -1.2881    0.9085    0.8819 H   0  0  0  0  0  0  0  0  0  0  0  0
   -0.0000   -1.2285    0.8816 H   0  0  0  0  0  0  0  0  0  0  0  0
    0.0000   -1.2285   -0.8816 H   0  0  0  0  0  0  0  0  0  0  0  0
    2.1502   -0.3538    0.0001 H   0  0  0  0  0  0  0  0  0  0  0  0
    1.2880    0.9086    0.8818 H   0  0  0  0  0  0  0  0  0  0  0  0
    1.2881    0.9085   -0.8819 H   0  0  0  0  0  0  0  0  0  0  0  0
  1  2  1  0  0  0  0
  2  3  1  0  0  0  0
  1  4  1  0  0  0  0
  1  5  1  0  0  0  0
  1  6  1  0  0  0  0
  2  7  1  0  0  0  0
  2  8  1  0  0  0  0
  3  9  1  0  0  0  0
  3 10  1  0  0  0  0
  3 11  1  0  0  0  0
M  END
