 xtb: 6.7.1 (edcfbbe)
          04092507313D

 38 37  0     0  0            999 V2000
    2.8031   -4.1089   -0.9895 C   0  0  0  0  0  0  0  0  0  0  0  0
    3.7471   -2.9197   -1.0644 C   0  0  0  0  0  0  0  0  0  0  0  0
    3.1162   -1.8158   -1.7446 O   0  0  0  0  0  0  0  0  0  0  0  0
    2.3848   -0.9810   -1.0471 C   0  0  0  0  0  0  0  0  0  0  0  0
    2.2232   -1.0335    0.1569 O   0  0  0  0  0  0  0  0  0  0  0  0
    1.7632    0.0978   -1.9096 C   0  0  0  0  0  0  0  0  0  0  0  0
    0.5315    0.6395   -1.1977 C   0  0  0  0  0  0  0  0  0  0  0  0
    0.1473    1.5363   -1.6918 H   0  0  0  0  0  0  0  0  0  0  0  0
    0.8375    0.9887    0.2453 C   0  0  0  0  0  0  0  0  0  0  0  0
    0.1061    0.6504    1.1602 O   0  0  0  0  0  0  0  0  0  0  0  0
    1.8803    1.7602    0.3614 O   0  0  0  0  0  0  0  0  0  0  0  0
    2.2080    2.2651    1.6743 C   0  0  0  0  0  0  0  0  0  0  0  0
    1.4140    3.5259    1.9742 C   0  0  0  0  0  0  0  0  0  0  0  0
   -0.7952   -0.6115   -1.1819 S   0  0  0  0  0  0  0  0  0  0  0  0
   -2.1157    0.2869    0.2403 P   0  0  0  0  0  0  0  0  0  0  0  0
   -2.1919    2.2359    0.4534 S   0  0  0  0  0  0  0  0  0  0  0  0
   -3.5086   -0.0759   -0.4550 O   0  0  0  0  0  0  0  0  0  0  0  0
   -3.9096   -1.4083   -0.8073 C   0  0  0  0  0  0  0  0  0  0  0  0
   -2.2764   -0.6841    1.5005 O   0  0  0  0  0  0  0  0  0  0  0  0
   -1.5236   -0.8151    2.7031 C   0  0  0  0  0  0  0  0  0  0  0  0
    1.9260   -3.8534   -0.3986 H   0  0  0  0  0  0  0  0  0  0  0  0
    2.4828   -4.3955   -1.9871 H   0  0  0  0  0  0  0  0  0  0  0  0
    3.3127   -4.9447   -0.5216 H   0  0  0  0  0  0  0  0  0  0  0  0
    4.6264   -3.1456   -1.6673 H   0  0  0  0  0  0  0  0  0  0  0  0
    4.0419   -2.5928   -0.0633 H   0  0  0  0  0  0  0  0  0  0  0  0
    1.5092   -0.3101   -2.8867 H   0  0  0  0  0  0  0  0  0  0  0  0
    2.4925    0.9011   -2.0342 H   0  0  0  0  0  0  0  0  0  0  0  0
    2.0001    1.4819    2.4076 H   0  0  0  0  0  0  0  0  0  0  0  0
    3.2779    2.4668    1.6245 H   0  0  0  0  0  0  0  0  0  0  0  0
    0.3456    3.3172    1.9437 H   0  0  0  0  0  0  0  0  0  0  0  0
    1.6747    3.8889    2.9626 H   0  0  0  0  0  0  0  0  0  0  0  0
    1.6355    4.2936    1.2383 H   0  0  0  0  0  0  0  0  0  0  0  0
   -3.1360   -1.8845   -1.4112 H   0  0  0  0  0  0  0  0  0  0  0  0
   -4.8236   -1.2876   -1.3833 H   0  0  0  0  0  0  0  0  0  0  0  0
   -4.0944   -1.9911    0.0933 H   0  0  0  0  0  0  0  0  0  0  0  0
   -0.5600   -1.2784    2.4968 H   0  0  0  0  0  0  0  0  0  0  0  0
   -2.1308   -1.4520    3.3435 H   0  0  0  0  0  0  0  0  0  0  0  0
   -1.3682    0.1589    3.1638 H   0  0  0  0  0  0  0  0  0  0  0  0
  1  2  1  0  0  0  0
  2  3  1  0  0  0  0
  3  4  4  0  0  0  0
  4  5  2  0  0  0  0
  4  6  1  0  0  0  0
  6  7  1  0  0  0  0
  7  8  1  0  0  0  0
  7  9  1  0  0  0  0
  9 10  2  0  0  0  0
  9 11  4  0  0  0  0
 11 12  1  0  0  0  0
 12 13  1  0  0  0  0
  7 14  1  0  0  0  0
 14 15  1  0  0  0  0
 15 16  2  0  0  0  0
 15 17  1  0  0  0  0
 17 18  1  0  0  0  0
 15 19  2  0  0  0  0
 19 20  1  0  0  0  0
  1 21  1  0  0  0  0
  1 22  1  0  0  0  0
  1 23  1  0  0  0  0
  2 24  1  0  0  0  0
  2 25  1  0  0  0  0
  6 26  1  0  0  0  0
  6 27  1  0  0  0  0
 12 28  1  0  0  0  0
 12 29  1  0  0  0  0
 13 30  1  0  0  0  0
 13 31  1  0  0  0  0
 13 32  1  0  0  0  0
 18 33  1  0  0  0  0
 18 34  1  0  0  0  0
 18 35  1  0  0  0  0
 20 36  1  0  0  0  0
 20 37  1  0  0  0  0
 20 38  1  0  0  0  0
M  END
