 xtb: 6.7.1 (edcfbbe)
          04092505213D

 41 40  0     0  0            999 V2000
    4.4706    1.4382   -1.2694 C   0  0  0  0  0  0  0  0  0  0  0  0
    4.1331   -0.0128   -1.5476 C   0  0  0  0  0  0  0  0  0  0  0  0
    2.7707   -0.3190   -1.2055 O   0  0  0  0  0  0  0  0  0  0  0  0
    2.2936   -0.4443    0.3156 P   0  0  0  0  0  0  0  0  0  0  0  0
    3.6207   -1.2566    1.5024 S   0  0  0  0  0  0  0  0  0  0  0  0
    0.9226   -1.2230    0.1366 O   0  0  0  0  0  0  0  0  0  0  0  0
    0.9150   -2.6528   -0.0767 C   0  0  0  0  0  0  0  0  0  0  0  0
    0.4520   -3.3579    1.1808 C   0  0  0  0  0  0  0  0  0  0  0  0
    1.5488    1.4340    0.8712 S   0  0  0  0  0  0  0  0  0  0  0  0
    0.5476    1.8537   -0.6091 C   0  0  0  0  0  0  0  0  0  0  0  0
   -1.1731    2.1912   -0.1909 S   0  0  0  0  0  0  0  0  0  0  0  0
   -1.9592    0.2194   -0.3850 P   0  0  0  0  0  0  0  0  0  0  0  0
   -1.3798   -0.7485   -1.9823 S   0  0  0  0  0  0  0  0  0  0  0  0
   -3.5216    0.4925   -0.2953 O   0  0  0  0  0  0  0  0  0  0  0  0
   -4.2282    1.1314   -1.3780 C   0  0  0  0  0  0  0  0  0  0  0  0
   -5.7114    0.9137   -1.1580 C   0  0  0  0  0  0  0  0  0  0  0  0
   -1.6690   -0.5435    0.9616 O   0  0  0  0  0  0  0  0  0  0  0  0
   -2.0129   -0.0158    2.2659 C   0  0  0  0  0  0  0  0  0  0  0  0
   -3.3344   -0.5804    2.7437 C   0  0  0  0  0  0  0  0  0  0  0  0
    5.4868    1.6369   -1.5944 H   0  0  0  0  0  0  0  0  0  0  0  0
    3.7888    2.0964   -1.8017 H   0  0  0  0  0  0  0  0  0  0  0  0
    4.3969    1.6379   -0.2006 H   0  0  0  0  0  0  0  0  0  0  0  0
    4.7898   -0.6766   -0.9757 H   0  0  0  0  0  0  0  0  0  0  0  0
    4.1984   -0.2491   -2.6105 H   0  0  0  0  0  0  0  0  0  0  0  0
    0.2256   -2.8138   -0.9083 H   0  0  0  0  0  0  0  0  0  0  0  0
    1.9185   -2.9771   -0.3667 H   0  0  0  0  0  0  0  0  0  0  0  0
   -0.5279   -2.9858    1.4676 H   0  0  0  0  0  0  0  0  0  0  0  0
    0.3934   -4.4249    0.9916 H   0  0  0  0  0  0  0  0  0  0  0  0
    1.1548   -3.1748    1.9912 H   0  0  0  0  0  0  0  0  0  0  0  0
    0.5909    1.0302   -1.3233 H   0  0  0  0  0  0  0  0  0  0  0  0
    0.9514    2.7726   -1.0250 H   0  0  0  0  0  0  0  0  0  0  0  0
   -3.9737    2.1944   -1.3705 H   0  0  0  0  0  0  0  0  0  0  0  0
   -3.8925    0.6886   -2.3213 H   0  0  0  0  0  0  0  0  0  0  0  0
   -5.9358   -0.1493   -1.1480 H   0  0  0  0  0  0  0  0  0  0  0  0
   -6.0156    1.3484   -0.2103 H   0  0  0  0  0  0  0  0  0  0  0  0
   -6.2631    1.3877   -1.9630 H   0  0  0  0  0  0  0  0  0  0  0  0
   -1.1869   -0.3226    2.9118 H   0  0  0  0  0  0  0  0  0  0  0  0
   -2.0463    1.0764    2.2119 H   0  0  0  0  0  0  0  0  0  0  0  0
   -4.1363   -0.2729    2.0782 H   0  0  0  0  0  0  0  0  0  0  0  0
   -3.2933   -1.6661    2.7656 H   0  0  0  0  0  0  0  0  0  0  0  0
   -3.5350   -0.2102    3.7443 H   0  0  0  0  0  0  0  0  0  0  0  0
  1  2  1  0  0  0  0
  2  3  1  0  0  0  0
  3  4  2  0  0  0  0
  4  5  2  0  0  0  0
  4  6  1  0  0  0  0
  6  7  1  0  0  0  0
  7  8  1  0  0  0  0
  4  9  1  0  0  0  0
  9 10  1  0  0  0  0
 10 11  1  0  0  0  0
 11 12  1  0  0  0  0
 12 13  2  0  0  0  0
 12 14  2  0  0  0  0
 14 15  1  0  0  0  0
 15 16  1  0  0  0  0
 12 17  2  0  0  0  0
 17 18  1  0  0  0  0
 18 19  1  0  0  0  0
  1 20  1  0  0  0  0
  1 21  1  0  0  0  0
  1 22  1  0  0  0  0
  2 23  1  0  0  0  0
  2 24  1  0  0  0  0
  7 25  1  0  0  0  0
  7 26  1  0  0  0  0
  8 27  1  0  0  0  0
  8 28  1  0  0  0  0
  8 29  1  0  0  0  0
 10 30  1  0  0  0  0
 10 31  1  0  0  0  0
 15 32  1  0  0  0  0
 15 33  1  0  0  0  0
 16 34  1  0  0  0  0
 16 35  1  0  0  0  0
 16 36  1  0  0  0  0
 18 37  1  0  0  0  0
 18 38  1  0  0  0  0
 19 39  1  0  0  0  0
 19 40  1  0  0  0  0
 19 41  1  0  0  0  0
M  END
