 xtb: 6.7.1 (edcfbbe)
          04092505203D

 41 40  0     0  0            999 V2000
    4.0477   -2.1438   -1.4442 C   0  0  0  0  0  0  0  0  0  0  0  0
    4.2443   -1.0158   -0.4513 C   0  0  0  0  0  0  0  0  0  0  0  0
    2.9925   -0.4840    0.0143 O   0  0  0  0  0  0  0  0  0  0  0  0
    2.0537    0.3960   -0.9333 P   0  0  0  0  0  0  0  0  0  0  0  0
    3.0039    1.5821   -2.1656 S   0  0  0  0  0  0  0  0  0  0  0  0
    1.0998    1.1064    0.1167 O   0  0  0  0  0  0  0  0  0  0  0  0
    1.4417    2.3685    0.7198 C   0  0  0  0  0  0  0  0  0  0  0  0
    2.5295    2.2193    1.7613 C   0  0  0  0  0  0  0  0  0  0  0  0
    0.6808   -0.9547   -1.7678 S   0  0  0  0  0  0  0  0  0  0  0  0
    0.2045   -1.8920   -0.2610 C   0  0  0  0  0  0  0  0  0  0  0  0
   -1.5818   -1.9531   -0.0461 S   0  0  0  0  0  0  0  0  0  0  0  0
   -1.8401   -0.0714    0.9245 P   0  0  0  0  0  0  0  0  0  0  0  0
   -0.6815    0.1548    2.4864 S   0  0  0  0  0  0  0  0  0  0  0  0
   -3.3970   -0.0554    1.2332 O   0  0  0  0  0  0  0  0  0  0  0  0
   -3.9600   -0.9148    2.2460 C   0  0  0  0  0  0  0  0  0  0  0  0
   -5.3485   -0.4028    2.5706 C   0  0  0  0  0  0  0  0  0  0  0  0
   -1.6962    1.0910   -0.1314 O   0  0  0  0  0  0  0  0  0  0  0  0
   -2.6923    1.4763   -1.1119 C   0  0  0  0  0  0  0  0  0  0  0  0
   -2.9782    0.3859   -2.1228 C   0  0  0  0  0  0  0  0  0  0  0  0
    3.4400   -2.9333   -1.0100 H   0  0  0  0  0  0  0  0  0  0  0  0
    3.5545   -1.7678   -2.3404 H   0  0  0  0  0  0  0  0  0  0  0  0
    5.0160   -2.5486   -1.7207 H   0  0  0  0  0  0  0  0  0  0  0  0
    4.8166   -0.2012   -0.9069 H   0  0  0  0  0  0  0  0  0  0  0  0
    4.7409   -1.3576    0.4578 H   0  0  0  0  0  0  0  0  0  0  0  0
    1.7476    3.0570   -0.0749 H   0  0  0  0  0  0  0  0  0  0  0  0
    0.5043    2.7055    1.1660 H   0  0  0  0  0  0  0  0  0  0  0  0
    2.6833    3.1731    2.2559 H   0  0  0  0  0  0  0  0  0  0  0  0
    2.2345    1.4748    2.4975 H   0  0  0  0  0  0  0  0  0  0  0  0
    3.4596    1.9076    1.2891 H   0  0  0  0  0  0  0  0  0  0  0  0
    0.6595   -1.4245    0.6125 H   0  0  0  0  0  0  0  0  0  0  0  0
    0.5355   -2.9186   -0.3902 H   0  0  0  0  0  0  0  0  0  0  0  0
   -3.9898   -1.9327    1.8493 H   0  0  0  0  0  0  0  0  0  0  0  0
   -3.3067   -0.8915    3.1244 H   0  0  0  0  0  0  0  0  0  0  0  0
   -5.7944   -1.0417    3.3256 H   0  0  0  0  0  0  0  0  0  0  0  0
   -5.2935    0.6139    2.9497 H   0  0  0  0  0  0  0  0  0  0  0  0
   -5.9681   -0.4144    1.6787 H   0  0  0  0  0  0  0  0  0  0  0  0
   -3.5991    1.7650   -0.5780 H   0  0  0  0  0  0  0  0  0  0  0  0
   -2.2435    2.3512   -1.5859 H   0  0  0  0  0  0  0  0  0  0  0  0
   -2.0551    0.0423   -2.5859 H   0  0  0  0  0  0  0  0  0  0  0  0
   -3.4702   -0.4593   -1.6465 H   0  0  0  0  0  0  0  0  0  0  0  0
   -3.6312    0.7858   -2.8925 H   0  0  0  0  0  0  0  0  0  0  0  0
  1  2  1  0  0  0  0
  2  3  1  0  0  0  0
  3  4  2  0  0  0  0
  4  5  2  0  0  0  0
  4  6  2  0  0  0  0
  6  7  1  0  0  0  0
  7  8  1  0  0  0  0
  4  9  1  0  0  0  0
  9 10  1  0  0  0  0
 10 11  1  0  0  0  0
 11 12  1  0  0  0  0
 12 13  2  0  0  0  0
 12 14  2  0  0  0  0
 14 15  1  0  0  0  0
 15 16  1  0  0  0  0
 12 17  2  0  0  0  0
 17 18  1  0  0  0  0
 18 19  1  0  0  0  0
  1 20  1  0  0  0  0
  1 21  1  0  0  0  0
  1 22  1  0  0  0  0
  2 23  1  0  0  0  0
  2 24  1  0  0  0  0
  7 25  1  0  0  0  0
  7 26  1  0  0  0  0
  8 27  1  0  0  0  0
  8 28  1  0  0  0  0
  8 29  1  0  0  0  0
 10 30  1  0  0  0  0
 10 31  1  0  0  0  0
 15 32  1  0  0  0  0
 15 33  1  0  0  0  0
 16 34  1  0  0  0  0
 16 35  1  0  0  0  0
 16 36  1  0  0  0  0
 18 37  1  0  0  0  0
 18 38  1  0  0  0  0
 19 39  1  0  0  0  0
 19 40  1  0  0  0  0
 19 41  1  0  0  0  0
M  END
