 xtb: 6.7.1 (edcfbbe)
          04092505203D

 41 40  0     0  0            999 V2000
    5.4020   -0.1375   -0.7671 C   0  0  0  0  0  0  0  0  0  0  0  0
    4.4144   -0.8388    0.1454 C   0  0  0  0  0  0  0  0  0  0  0  0
    3.3754    0.0656    0.5694 O   0  0  0  0  0  0  0  0  0  0  0  0
    1.9666    0.1471   -0.1681 P   0  0  0  0  0  0  0  0  0  0  0  0
    2.0269    0.3871   -2.1169 S   0  0  0  0  0  0  0  0  0  0  0  0
    1.2611    1.2716    0.6921 O   0  0  0  0  0  0  0  0  0  0  0  0
    1.3179    2.6640    0.3306 C   0  0  0  0  0  0  0  0  0  0  0  0
    2.7224    3.2161    0.4399 C   0  0  0  0  0  0  0  0  0  0  0  0
    1.0518   -1.6118    0.5250 S   0  0  0  0  0  0  0  0  0  0  0  0
   -0.1702   -1.9325   -0.7940 C   0  0  0  0  0  0  0  0  0  0  0  0
   -1.8605   -1.9877   -0.1725 S   0  0  0  0  0  0  0  0  0  0  0  0
   -2.1297    0.1013    0.1317 P   0  0  0  0  0  0  0  0  0  0  0  0
   -1.3959    1.2382   -1.2849 S   0  0  0  0  0  0  0  0  0  0  0  0
   -1.5038    0.5241    1.5157 O   0  0  0  0  0  0  0  0  0  0  0  0
   -1.9429    0.0570    2.8176 C   0  0  0  0  0  0  0  0  0  0  0  0
   -1.0843   -1.0901    3.3113 C   0  0  0  0  0  0  0  0  0  0  0  0
   -3.6824    0.2122    0.4444 O   0  0  0  0  0  0  0  0  0  0  0  0
   -4.7323   -0.4098   -0.3219 C   0  0  0  0  0  0  0  0  0  0  0  0
   -4.6937   -0.0278   -1.7862 C   0  0  0  0  0  0  0  0  0  0  0  0
    5.8211    0.7315   -0.2677 H   0  0  0  0  0  0  0  0  0  0  0  0
    6.2012   -0.8249   -1.0243 H   0  0  0  0  0  0  0  0  0  0  0  0
    4.9052    0.1853   -1.6797 H   0  0  0  0  0  0  0  0  0  0  0  0
    4.8902   -1.1658    1.0717 H   0  0  0  0  0  0  0  0  0  0  0  0
    3.9627   -1.6994   -0.3563 H   0  0  0  0  0  0  0  0  0  0  0  0
    0.9299    2.7739   -0.6881 H   0  0  0  0  0  0  0  0  0  0  0  0
    0.6300    3.1414    1.0302 H   0  0  0  0  0  0  0  0  0  0  0  0
    3.1238    3.0256    1.4318 H   0  0  0  0  0  0  0  0  0  0  0  0
    3.3629    2.7364   -0.2995 H   0  0  0  0  0  0  0  0  0  0  0  0
    2.7035    4.2850    0.2515 H   0  0  0  0  0  0  0  0  0  0  0  0
    0.0336   -2.9158   -1.2095 H   0  0  0  0  0  0  0  0  0  0  0  0
   -0.0767   -1.1529   -1.5559 H   0  0  0  0  0  0  0  0  0  0  0  0
   -1.8361    0.9335    3.4588 H   0  0  0  0  0  0  0  0  0  0  0  0
   -2.9947   -0.2268    2.7555 H   0  0  0  0  0  0  0  0  0  0  0  0
   -1.3711   -1.3285    4.3307 H   0  0  0  0  0  0  0  0  0  0  0  0
   -1.2164   -1.9729    2.6904 H   0  0  0  0  0  0  0  0  0  0  0  0
   -0.0346   -0.8077    3.2921 H   0  0  0  0  0  0  0  0  0  0  0  0
   -4.6462   -1.4930   -0.2019 H   0  0  0  0  0  0  0  0  0  0  0  0
   -5.6442   -0.0518    0.1594 H   0  0  0  0  0  0  0  0  0  0  0  0
   -5.5496   -0.4601   -2.2943 H   0  0  0  0  0  0  0  0  0  0  0  0
   -4.7160    1.0538   -1.8976 H   0  0  0  0  0  0  0  0  0  0  0  0
   -3.7809   -0.4000   -2.2491 H   0  0  0  0  0  0  0  0  0  0  0  0
  1  2  1  0  0  0  0
  2  3  1  0  0  0  0
  3  4  2  0  0  0  0
  4  5  2  0  0  0  0
  4  6  2  0  0  0  0
  6  7  1  0  0  0  0
  7  8  1  0  0  0  0
  4  9  1  0  0  0  0
  9 10  1  0  0  0  0
 10 11  1  0  0  0  0
 11 12  1  0  0  0  0
 12 13  2  0  0  0  0
 12 14  2  0  0  0  0
 14 15  1  0  0  0  0
 15 16  1  0  0  0  0
 12 17  2  0  0  0  0
 17 18  1  0  0  0  0
 18 19  1  0  0  0  0
  1 20  1  0  0  0  0
  1 21  1  0  0  0  0
  1 22  1  0  0  0  0
  2 23  1  0  0  0  0
  2 24  1  0  0  0  0
  7 25  1  0  0  0  0
  7 26  1  0  0  0  0
  8 27  1  0  0  0  0
  8 28  1  0  0  0  0
  8 29  1  0  0  0  0
 10 30  1  0  0  0  0
 10 31  1  0  0  0  0
 15 32  1  0  0  0  0
 15 33  1  0  0  0  0
 16 34  1  0  0  0  0
 16 35  1  0  0  0  0
 16 36  1  0  0  0  0
 18 37  1  0  0  0  0
 18 38  1  0  0  0  0
 19 39  1  0  0  0  0
 19 40  1  0  0  0  0
 19 41  1  0  0  0  0
M  END
