 xtb: 6.7.1 (edcfbbe)
          04092505203D

 41 40  0     0  0            999 V2000
    2.6252    0.9922   -2.3860 C   0  0  0  0  0  0  0  0  0  0  0  0
    1.9948   -0.3537   -2.0882 C   0  0  0  0  0  0  0  0  0  0  0  0
    2.5746   -0.9661   -0.9256 O   0  0  0  0  0  0  0  0  0  0  0  0
    2.1531   -0.6742    0.5813 P   0  0  0  0  0  0  0  0  0  0  0  0
    2.3946    1.1419    1.2933 S   0  0  0  0  0  0  0  0  0  0  0  0
    3.0061   -1.7776    1.3304 O   0  0  0  0  0  0  0  0  0  0  0  0
    4.3094   -1.4997    1.8792 C   0  0  0  0  0  0  0  0  0  0  0  0
    5.3332   -1.2580    0.7905 C   0  0  0  0  0  0  0  0  0  0  0  0
    0.2439   -1.5484    0.7480 S   0  0  0  0  0  0  0  0  0  0  0  0
   -0.5865   -0.3097    1.8119 C   0  0  0  0  0  0  0  0  0  0  0  0
   -2.3088   -0.0878    1.3452 S   0  0  0  0  0  0  0  0  0  0  0  0
   -1.9874    0.6757   -0.6229 P   0  0  0  0  0  0  0  0  0  0  0  0
   -0.5517    2.0003   -0.7668 S   0  0  0  0  0  0  0  0  0  0  0  0
   -3.4298    1.1508   -1.0870 O   0  0  0  0  0  0  0  0  0  0  0  0
   -3.9456    2.4656   -0.8097 C   0  0  0  0  0  0  0  0  0  0  0  0
   -4.1492    2.7076    0.6715 C   0  0  0  0  0  0  0  0  0  0  0  0
   -1.7156   -0.5484   -1.5829 O   0  0  0  0  0  0  0  0  0  0  0  0
   -2.7020   -1.4887   -2.0768 C   0  0  0  0  0  0  0  0  0  0  0  0
   -3.2696   -2.3663   -0.9810 C   0  0  0  0  0  0  0  0  0  0  0  0
    2.2244    1.3747   -3.3192 H   0  0  0  0  0  0  0  0  0  0  0  0
    2.3922    1.7028   -1.5948 H   0  0  0  0  0  0  0  0  0  0  0  0
    3.7042    0.8933   -2.4674 H   0  0  0  0  0  0  0  0  0  0  0  0
    2.1909   -1.0697   -2.8887 H   0  0  0  0  0  0  0  0  0  0  0  0
    0.9136   -0.2524   -1.9481 H   0  0  0  0  0  0  0  0  0  0  0  0
    4.2300   -0.6266    2.5348 H   0  0  0  0  0  0  0  0  0  0  0  0
    4.5399   -2.3890    2.4669 H   0  0  0  0  0  0  0  0  0  0  0  0
    5.0759   -0.3519    0.2426 H   0  0  0  0  0  0  0  0  0  0  0  0
    6.3150   -1.1351    1.2367 H   0  0  0  0  0  0  0  0  0  0  0  0
    5.3492   -2.0943    0.0966 H   0  0  0  0  0  0  0  0  0  0  0  0
   -0.0461    0.6376    1.7213 H   0  0  0  0  0  0  0  0  0  0  0  0
   -0.5905   -0.6646    2.8394 H   0  0  0  0  0  0  0  0  0  0  0  0
   -3.2529    3.2023   -1.2279 H   0  0  0  0  0  0  0  0  0  0  0  0
   -4.8898    2.4914   -1.3556 H   0  0  0  0  0  0  0  0  0  0  0  0
   -4.7366    1.9054    1.1108 H   0  0  0  0  0  0  0  0  0  0  0  0
   -3.1864    2.7552    1.1780 H   0  0  0  0  0  0  0  0  0  0  0  0
   -4.6649    3.6523    0.8112 H   0  0  0  0  0  0  0  0  0  0  0  0
   -3.4897   -0.9252   -2.5796 H   0  0  0  0  0  0  0  0  0  0  0  0
   -2.1378   -2.0742   -2.8045 H   0  0  0  0  0  0  0  0  0  0  0  0
   -3.8668   -3.1515   -1.4339 H   0  0  0  0  0  0  0  0  0  0  0  0
   -2.4633   -2.8165   -0.4057 H   0  0  0  0  0  0  0  0  0  0  0  0
   -3.8983   -1.7845   -0.3111 H   0  0  0  0  0  0  0  0  0  0  0  0
  1  2  1  0  0  0  0
  2  3  1  0  0  0  0
  3  4  2  0  0  0  0
  4  5  2  0  0  0  0
  4  6  2  0  0  0  0
  6  7  1  0  0  0  0
  7  8  1  0  0  0  0
  4  9  1  0  0  0  0
  9 10  1  0  0  0  0
 10 11  1  0  0  0  0
 11 12  1  0  0  0  0
 12 13  2  0  0  0  0
 12 14  2  0  0  0  0
 14 15  1  0  0  0  0
 15 16  1  0  0  0  0
 12 17  2  0  0  0  0
 17 18  1  0  0  0  0
 18 19  1  0  0  0  0
  1 20  1  0  0  0  0
  1 21  1  0  0  0  0
  1 22  1  0  0  0  0
  2 23  1  0  0  0  0
  2 24  1  0  0  0  0
  7 25  1  0  0  0  0
  7 26  1  0  0  0  0
  8 27  1  0  0  0  0
  8 28  1  0  0  0  0
  8 29  1  0  0  0  0
 10 30  1  0  0  0  0
 10 31  1  0  0  0  0
 15 32  1  0  0  0  0
 15 33  1  0  0  0  0
 16 34  1  0  0  0  0
 16 35  1  0  0  0  0
 16 36  1  0  0  0  0
 18 37  1  0  0  0  0
 18 38  1  0  0  0  0
 19 39  1  0  0  0  0
 19 40  1  0  0  0  0
 19 41  1  0  0  0  0
M  END
