 xtb: 6.7.1 (edcfbbe)
          04092505213D

 41 40  0     0  0            999 V2000
    3.0776   -1.4662   -2.2522 C   0  0  0  0  0  0  0  0  0  0  0  0
    1.6579   -0.9567   -2.1388 C   0  0  0  0  0  0  0  0  0  0  0  0
    1.2394   -0.8723   -0.7624 O   0  0  0  0  0  0  0  0  0  0  0  0
    1.8706    0.1839    0.2312 P   0  0  0  0  0  0  0  0  0  0  0  0
    2.6156    1.8332   -0.5110 S   0  0  0  0  0  0  0  0  0  0  0  0
    2.8894   -0.7697    1.0096 O   0  0  0  0  0  0  0  0  0  0  0  0
    3.7476   -0.2666    2.0501 C   0  0  0  0  0  0  0  0  0  0  0  0
    5.1172    0.0802    1.4993 C   0  0  0  0  0  0  0  0  0  0  0  0
    0.3311    0.4653    1.6563 S   0  0  0  0  0  0  0  0  0  0  0  0
   -0.2678   -1.2355    1.8082 C   0  0  0  0  0  0  0  0  0  0  0  0
   -1.3435   -1.8079    0.4401 S   0  0  0  0  0  0  0  0  0  0  0  0
   -2.1217   -0.0038   -0.3081 P   0  0  0  0  0  0  0  0  0  0  0  0
   -1.0568    1.2432   -1.4078 S   0  0  0  0  0  0  0  0  0  0  0  0
   -2.7512    0.5827    1.0171 O   0  0  0  0  0  0  0  0  0  0  0  0
   -3.0730    1.9780    1.2115 C   0  0  0  0  0  0  0  0  0  0  0  0
   -2.7959    2.3327    2.6582 C   0  0  0  0  0  0  0  0  0  0  0  0
   -3.4200   -0.4975   -1.0870 O   0  0  0  0  0  0  0  0  0  0  0  0
   -3.4099   -0.8451   -2.4808 C   0  0  0  0  0  0  0  0  0  0  0  0
   -2.6709   -2.1448   -2.7261 C   0  0  0  0  0  0  0  0  0  0  0  0
    3.7599   -0.7470   -1.8002 H   0  0  0  0  0  0  0  0  0  0  0  0
    3.1749   -2.4189   -1.7384 H   0  0  0  0  0  0  0  0  0  0  0  0
    3.3337   -1.5877   -3.2999 H   0  0  0  0  0  0  0  0  0  0  0  0
    0.9400   -1.6448   -2.5885 H   0  0  0  0  0  0  0  0  0  0  0  0
    1.5524    0.0331   -2.5954 H   0  0  0  0  0  0  0  0  0  0  0  0
    3.2796    0.6089    2.5121 H   0  0  0  0  0  0  0  0  0  0  0  0
    3.8078   -1.0767    2.7796 H   0  0  0  0  0  0  0  0  0  0  0  0
    5.0353    0.8866    0.7738 H   0  0  0  0  0  0  0  0  0  0  0  0
    5.7596    0.4006    2.3130 H   0  0  0  0  0  0  0  0  0  0  0  0
    5.5550   -0.7874    1.0141 H   0  0  0  0  0  0  0  0  0  0  0  0
   -0.8435   -1.2651    2.7303 H   0  0  0  0  0  0  0  0  0  0  0  0
    0.5767   -1.9211    1.8413 H   0  0  0  0  0  0  0  0  0  0  0  0
   -2.4643    2.5798    0.5273 H   0  0  0  0  0  0  0  0  0  0  0  0
   -4.1281    2.1054    0.9600 H   0  0  0  0  0  0  0  0  0  0  0  0
   -3.0691    3.3691    2.8271 H   0  0  0  0  0  0  0  0  0  0  0  0
   -3.3793    1.6935    3.3142 H   0  0  0  0  0  0  0  0  0  0  0  0
   -1.7395    2.1992    2.8796 H   0  0  0  0  0  0  0  0  0  0  0  0
   -4.4659   -0.9230   -2.7425 H   0  0  0  0  0  0  0  0  0  0  0  0
   -2.9469   -0.0239   -3.0387 H   0  0  0  0  0  0  0  0  0  0  0  0
   -1.6203   -2.0232   -2.4624 H   0  0  0  0  0  0  0  0  0  0  0  0
   -3.0917   -2.9396   -2.1157 H   0  0  0  0  0  0  0  0  0  0  0  0
   -2.7451   -2.4122   -3.7752 H   0  0  0  0  0  0  0  0  0  0  0  0
  1  2  1  0  0  0  0
  2  3  1  0  0  0  0
  3  4  2  0  0  0  0
  4  5  2  0  0  0  0
  4  6  1  0  0  0  0
  6  7  1  0  0  0  0
  7  8  1  0  0  0  0
  4  9  1  0  0  0  0
  9 10  1  0  0  0  0
 10 11  1  0  0  0  0
 11 12  1  0  0  0  0
 12 13  2  0  0  0  0
 12 14  2  0  0  0  0
 14 15  1  0  0  0  0
 15 16  1  0  0  0  0
 12 17  2  0  0  0  0
 17 18  1  0  0  0  0
 18 19  1  0  0  0  0
  1 20  1  0  0  0  0
  1 21  1  0  0  0  0
  1 22  1  0  0  0  0
  2 23  1  0  0  0  0
  2 24  1  0  0  0  0
  7 25  1  0  0  0  0
  7 26  1  0  0  0  0
  8 27  1  0  0  0  0
  8 28  1  0  0  0  0
  8 29  1  0  0  0  0
 10 30  1  0  0  0  0
 10 31  1  0  0  0  0
 15 32  1  0  0  0  0
 15 33  1  0  0  0  0
 16 34  1  0  0  0  0
 16 35  1  0  0  0  0
 16 36  1  0  0  0  0
 18 37  1  0  0  0  0
 18 38  1  0  0  0  0
 19 39  1  0  0  0  0
 19 40  1  0  0  0  0
 19 41  1  0  0  0  0
M  END
