 xtb: 6.7.1 (edcfbbe)
          04092505213D

 41 40  0     0  0            999 V2000
    4.9182    1.6081    0.0111 C   0  0  0  0  0  0  0  0  0  0  0  0
    4.3889    0.6618   -1.0456 C   0  0  0  0  0  0  0  0  0  0  0  0
    3.6146   -0.4191   -0.4909 O   0  0  0  0  0  0  0  0  0  0  0  0
    2.3680   -0.2497    0.4778 P   0  0  0  0  0  0  0  0  0  0  0  0
    2.6875    0.1574    2.3621 S   0  0  0  0  0  0  0  0  0  0  0  0
    1.6674   -1.6579    0.3641 O   0  0  0  0  0  0  0  0  0  0  0  0
    1.4365   -2.3595   -0.8795 C   0  0  0  0  0  0  0  0  0  0  0  0
    2.5081   -3.4055   -1.1028 C   0  0  0  0  0  0  0  0  0  0  0  0
    1.1540    1.1630   -0.5683 S   0  0  0  0  0  0  0  0  0  0  0  0
    0.0920    1.5832    0.8318 C   0  0  0  0  0  0  0  0  0  0  0  0
   -0.9902    0.2272    1.3667 S   0  0  0  0  0  0  0  0  0  0  0  0
   -2.2015    0.0483   -0.3628 P   0  0  0  0  0  0  0  0  0  0  0  0
   -1.5149   -0.7659   -1.9988 S   0  0  0  0  0  0  0  0  0  0  0  0
   -2.6434    1.5812   -0.4942 O   0  0  0  0  0  0  0  0  0  0  0  0
   -3.0950    2.1298   -1.7483 C   0  0  0  0  0  0  0  0  0  0  0  0
   -4.4847    1.6374   -2.0967 C   0  0  0  0  0  0  0  0  0  0  0  0
   -3.4527   -0.7795    0.1463 O   0  0  0  0  0  0  0  0  0  0  0  0
   -4.2339   -0.4227    1.3125 C   0  0  0  0  0  0  0  0  0  0  0  0
   -3.9150   -1.3546    2.4642 C   0  0  0  0  0  0  0  0  0  0  0  0
    4.0939    2.1210    0.5043 H   0  0  0  0  0  0  0  0  0  0  0  0
    5.4795    1.0599    0.7640 H   0  0  0  0  0  0  0  0  0  0  0  0
    5.5649    2.3435   -0.4565 H   0  0  0  0  0  0  0  0  0  0  0  0
    5.2008    0.1527   -1.5679 H   0  0  0  0  0  0  0  0  0  0  0  0
    3.7620    1.1953   -1.7657 H   0  0  0  0  0  0  0  0  0  0  0  0
    0.4503   -2.8148   -0.7650 H   0  0  0  0  0  0  0  0  0  0  0  0
    1.3993   -1.6401   -1.7024 H   0  0  0  0  0  0  0  0  0  0  0  0
    3.4806   -2.9311   -1.2045 H   0  0  0  0  0  0  0  0  0  0  0  0
    2.5378   -4.0899   -0.2593 H   0  0  0  0  0  0  0  0  0  0  0  0
    2.2785   -3.9580   -2.0083 H   0  0  0  0  0  0  0  0  0  0  0  0
   -0.5088    2.4381    0.5339 H   0  0  0  0  0  0  0  0  0  0  0  0
    0.7160    1.8117    1.6974 H   0  0  0  0  0  0  0  0  0  0  0  0
   -3.0734    3.2091   -1.5910 H   0  0  0  0  0  0  0  0  0  0  0  0
   -2.3797    1.8507   -2.5282 H   0  0  0  0  0  0  0  0  0  0  0  0
   -4.4676    0.5561   -2.2307 H   0  0  0  0  0  0  0  0  0  0  0  0
   -5.1857    1.8857   -1.3039 H   0  0  0  0  0  0  0  0  0  0  0  0
   -4.8094    2.1018   -3.0225 H   0  0  0  0  0  0  0  0  0  0  0  0
   -4.0321    0.6185    1.5755 H   0  0  0  0  0  0  0  0  0  0  0  0
   -5.2722   -0.5309    0.9943 H   0  0  0  0  0  0  0  0  0  0  0  0
   -4.5583   -1.1162    3.3053 H   0  0  0  0  0  0  0  0  0  0  0  0
   -4.0814   -2.3857    2.1647 H   0  0  0  0  0  0  0  0  0  0  0  0
   -2.8759   -1.2426    2.7682 H   0  0  0  0  0  0  0  0  0  0  0  0
  1  2  1  0  0  0  0
  2  3  1  0  0  0  0
  3  4  2  0  0  0  0
  4  5  2  0  0  0  0
  4  6  2  0  0  0  0
  6  7  1  0  0  0  0
  7  8  1  0  0  0  0
  4  9  1  0  0  0  0
  9 10  1  0  0  0  0
 10 11  1  0  0  0  0
 11 12  1  0  0  0  0
 12 13  2  0  0  0  0
 12 14  1  0  0  0  0
 14 15  1  0  0  0  0
 15 16  1  0  0  0  0
 12 17  2  0  0  0  0
 17 18  1  0  0  0  0
 18 19  1  0  0  0  0
  1 20  1  0  0  0  0
  1 21  1  0  0  0  0
  1 22  1  0  0  0  0
  2 23  1  0  0  0  0
  2 24  1  0  0  0  0
  7 25  1  0  0  0  0
  7 26  1  0  0  0  0
  8 27  1  0  0  0  0
  8 28  1  0  0  0  0
  8 29  1  0  0  0  0
 10 30  1  0  0  0  0
 10 31  1  0  0  0  0
 15 32  1  0  0  0  0
 15 33  1  0  0  0  0
 16 34  1  0  0  0  0
 16 35  1  0  0  0  0
 16 36  1  0  0  0  0
 18 37  1  0  0  0  0
 18 38  1  0  0  0  0
 19 39  1  0  0  0  0
 19 40  1  0  0  0  0
 19 41  1  0  0  0  0
M  END
