 xtb: 6.7.1 (edcfbbe)
          04032519423D

 20 20  0     0  0            999 V2000
    0.7959    1.3167   -1.0313 C   0  0  0  0  0  0  0  0  0  0  0  0
    1.4734    0.3136   -0.0932 C   0  0  0  0  0  0  0  0  0  0  0  0
    2.4158   -0.0121   -0.5580 H   0  0  0  0  0  0  0  0  0  0  0  0
    0.6034   -0.9460    0.0790 C   0  0  0  0  0  0  0  0  0  0  0  0
    0.5322   -1.1391    1.1599 H   0  0  0  0  0  0  0  0  0  0  0  0
   -0.8214   -0.7399   -0.4708 C   0  0  0  0  0  0  0  0  0  0  0  0
   -0.8055   -0.8394   -1.5611 H   0  0  0  0  0  0  0  0  0  0  0  0
   -1.3189    0.6606   -0.0917 C   0  0  0  0  0  0  0  0  0  0  0  0
   -2.3267    0.8233   -0.5144 H   0  0  0  0  0  0  0  0  0  0  0  0
   -0.5123    1.6849   -0.6098 O   0  0  0  0  0  0  0  0  0  0  0  0
   -1.3805    0.7025    1.3038 O   0  0  0  0  0  0  0  0  0  0  0  0
   -1.7007   -1.7286   -0.0056 O   0  0  0  0  0  0  0  0  0  0  0  0
    1.2442   -2.0135   -0.5765 O   0  0  0  0  0  0  0  0  0  0  0  0
    1.7100    0.8479    1.1861 O   0  0  0  0  0  0  0  0  0  0  0  0
    0.7553    0.8878   -2.0397 H   0  0  0  0  0  0  0  0  0  0  0  0
    1.3478    2.2574   -1.0639 H   0  0  0  0  0  0  0  0  0  0  0  0
   -1.5910    1.6014    1.5959 H   0  0  0  0  0  0  0  0  0  0  0  0
   -1.8868   -1.5585    0.9313 H   0  0  0  0  0  0  0  0  0  0  0  0
    0.6863   -2.8026   -0.5066 H   0  0  0  0  0  0  0  0  0  0  0  0
    2.2915    1.6188    1.1158 H   0  0  0  0  0  0  0  0  0  0  0  0
  1  2  1  0  0  0  0
  2  3  1  0  0  0  0
  2  4  1  0  0  0  0
  4  5  1  0  0  0  0
  4  6  1  0  0  0  0
  6  7  1  0  0  0  0
  6  8  1  0  0  0  0
  8  9  1  0  0  0  0
  1 10  1  0  0  0  0
  8 10  1  0  0  0  0
  8 11  1  0  0  0  0
  6 12  1  0  0  0  0
  4 13  1  0  0  0  0
  2 14  1  0  0  0  0
  1 15  1  0  0  0  0
  1 16  1  0  0  0  0
 11 17  1  0  0  0  0
 12 18  1  0  0  0  0
 13 19  1  0  0  0  0
 14 20  1  0  0  0  0
M  END
