 xtb: 6.7.1 (edcfbbe)
          04092505203D

 41 40  0     0  0            999 V2000
    2.8980    1.9001   -1.4153 C   0  0  0  0  0  0  0  0  0  0  0  0
    1.6622    1.9477   -0.5447 C   0  0  0  0  0  0  0  0  0  0  0  0
    1.8344    1.2705    0.7223 O   0  0  0  0  0  0  0  0  0  0  0  0
    2.2404   -0.2372    0.9518 P   0  0  0  0  0  0  0  0  0  0  0  0
    1.8944   -0.7957    2.7937 S   0  0  0  0  0  0  0  0  0  0  0  0
    3.7723   -0.2584    0.5308 O   0  0  0  0  0  0  0  0  0  0  0  0
    4.6792   -1.2848    0.9687 C   0  0  0  0  0  0  0  0  0  0  0  0
    4.3451   -2.6391    0.3772 C   0  0  0  0  0  0  0  0  0  0  0  0
    1.2596   -1.3519   -0.5817 S   0  0  0  0  0  0  0  0  0  0  0  0
   -0.2492   -1.7038    0.3607 C   0  0  0  0  0  0  0  0  0  0  0  0
   -1.1008   -0.2199    0.9581 S   0  0  0  0  0  0  0  0  0  0  0  0
   -2.2214    0.1897   -0.8258 P   0  0  0  0  0  0  0  0  0  0  0  0
   -1.2401    0.1920   -2.5156 S   0  0  0  0  0  0  0  0  0  0  0  0
   -3.0013    1.5079   -0.4056 O   0  0  0  0  0  0  0  0  0  0  0  0
   -2.3538    2.7533   -0.0791 C   0  0  0  0  0  0  0  0  0  0  0  0
   -2.0202    3.5543   -1.3223 C   0  0  0  0  0  0  0  0  0  0  0  0
   -3.3563   -0.9005   -0.8636 O   0  0  0  0  0  0  0  0  0  0  0  0
   -4.3401   -1.0797    0.1858 C   0  0  0  0  0  0  0  0  0  0  0  0
   -5.6241   -0.3536   -0.1589 C   0  0  0  0  0  0  0  0  0  0  0  0
    3.7601    2.2716   -0.8677 H   0  0  0  0  0  0  0  0  0  0  0  0
    3.0932    0.8785   -1.7349 H   0  0  0  0  0  0  0  0  0  0  0  0
    2.7315    2.5158   -2.2939 H   0  0  0  0  0  0  0  0  0  0  0  0
    0.8113    1.4990   -1.0685 H   0  0  0  0  0  0  0  0  0  0  0  0
    1.4158    2.9686   -0.2482 H   0  0  0  0  0  0  0  0  0  0  0  0
    5.6546   -0.9287    0.6347 H   0  0  0  0  0  0  0  0  0  0  0  0
    4.6513   -1.3264    2.0621 H   0  0  0  0  0  0  0  0  0  0  0  0
    5.1287   -3.3450    0.6332 H   0  0  0  0  0  0  0  0  0  0  0  0
    3.4009   -2.9991    0.7830 H   0  0  0  0  0  0  0  0  0  0  0  0
    4.2593   -2.5709   -0.7044 H   0  0  0  0  0  0  0  0  0  0  0  0
    0.0113   -2.2747    1.2511 H   0  0  0  0  0  0  0  0  0  0  0  0
   -0.9041   -2.2681   -0.3003 H   0  0  0  0  0  0  0  0  0  0  0  0
   -3.0831    3.2755    0.5435 H   0  0  0  0  0  0  0  0  0  0  0  0
   -1.4579    2.5446    0.5131 H   0  0  0  0  0  0  0  0  0  0  0  0
   -1.5877    4.5055   -1.0292 H   0  0  0  0  0  0  0  0  0  0  0  0
   -1.3098    3.0154   -1.9449 H   0  0  0  0  0  0  0  0  0  0  0  0
   -2.9211    3.7336   -1.9027 H   0  0  0  0  0  0  0  0  0  0  0  0
   -4.4956   -2.1590    0.2338 H   0  0  0  0  0  0  0  0  0  0  0  0
   -3.9216   -0.7226    1.1308 H   0  0  0  0  0  0  0  0  0  0  0  0
   -5.4482    0.7171   -0.2157 H   0  0  0  0  0  0  0  0  0  0  0  0
   -5.9991   -0.6979   -1.1188 H   0  0  0  0  0  0  0  0  0  0  0  0
   -6.3638   -0.5564    0.6092 H   0  0  0  0  0  0  0  0  0  0  0  0
  1  2  1  0  0  0  0
  2  3  1  0  0  0  0
  3  4  2  0  0  0  0
  4  5  2  0  0  0  0
  4  6  2  0  0  0  0
  6  7  1  0  0  0  0
  7  8  1  0  0  0  0
  4  9  1  0  0  0  0
  9 10  1  0  0  0  0
 10 11  1  0  0  0  0
 11 12  1  0  0  0  0
 12 13  2  0  0  0  0
 12 14  2  0  0  0  0
 14 15  1  0  0  0  0
 15 16  1  0  0  0  0
 12 17  2  0  0  0  0
 17 18  1  0  0  0  0
 18 19  1  0  0  0  0
  1 20  1  0  0  0  0
  1 21  1  0  0  0  0
  1 22  1  0  0  0  0
  2 23  1  0  0  0  0
  2 24  1  0  0  0  0
  7 25  1  0  0  0  0
  7 26  1  0  0  0  0
  8 27  1  0  0  0  0
  8 28  1  0  0  0  0
  8 29  1  0  0  0  0
 10 30  1  0  0  0  0
 10 31  1  0  0  0  0
 15 32  1  0  0  0  0
 15 33  1  0  0  0  0
 16 34  1  0  0  0  0
 16 35  1  0  0  0  0
 16 36  1  0  0  0  0
 18 37  1  0  0  0  0
 18 38  1  0  0  0  0
 19 39  1  0  0  0  0
 19 40  1  0  0  0  0
 19 41  1  0  0  0  0
M  END
