 xtb: 6.7.1 (edcfbbe)
          04092507313D

 38 37  0     0  0            999 V2000
    3.1791   -3.7929    1.1220 C   0  0  0  0  0  0  0  0  0  0  0  0
    2.8985   -3.3166   -0.2941 C   0  0  0  0  0  0  0  0  0  0  0  0
    2.8950   -1.8767   -0.3633 O   0  0  0  0  0  0  0  0  0  0  0  0
    1.7870   -1.2352   -0.0687 C   0  0  0  0  0  0  0  0  0  0  0  0
    0.7442   -1.7819    0.2379 O   0  0  0  0  0  0  0  0  0  0  0  0
    1.9646    0.2637   -0.1598 C   0  0  0  0  0  0  0  0  0  0  0  0
    0.6422    0.9353   -0.4872 C   0  0  0  0  0  0  0  0  0  0  0  0
    0.1834    0.4942   -1.3820 H   0  0  0  0  0  0  0  0  0  0  0  0
    0.7118    2.4428   -0.6738 C   0  0  0  0  0  0  0  0  0  0  0  0
   -0.1647    3.0672   -1.2275 O   0  0  0  0  0  0  0  0  0  0  0  0
    1.8002    2.9586   -0.1532 O   0  0  0  0  0  0  0  0  0  0  0  0
    1.9540    4.3934   -0.1748 C   0  0  0  0  0  0  0  0  0  0  0  0
    1.2753    5.0225    1.0310 C   0  0  0  0  0  0  0  0  0  0  0  0
   -0.5852    0.7070    0.8597 S   0  0  0  0  0  0  0  0  0  0  0  0
   -1.7364   -0.8761    0.0091 P   0  0  0  0  0  0  0  0  0  0  0  0
   -1.4180   -1.3733   -1.8577 S   0  0  0  0  0  0  0  0  0  0  0  0
   -1.8031   -2.0822    1.0195 O   0  0  0  0  0  0  0  0  0  0  0  0
   -2.1001   -1.8986    2.4177 C   0  0  0  0  0  0  0  0  0  0  0  0
   -3.2270   -0.2927    0.2200 O   0  0  0  0  0  0  0  0  0  0  0  0
   -3.6954    0.8099   -0.5554 C   0  0  0  0  0  0  0  0  0  0  0  0
    3.2500   -4.8755    1.1272 H   0  0  0  0  0  0  0  0  0  0  0  0
    4.1135   -3.3699    1.4802 H   0  0  0  0  0  0  0  0  0  0  0  0
    2.3722   -3.4900    1.7854 H   0  0  0  0  0  0  0  0  0  0  0  0
    1.9296   -3.6842   -0.6454 H   0  0  0  0  0  0  0  0  0  0  0  0
    3.6896   -3.6172   -0.9809 H   0  0  0  0  0  0  0  0  0  0  0  0
    2.7074    0.4850   -0.9264 H   0  0  0  0  0  0  0  0  0  0  0  0
    2.3415    0.6261    0.7996 H   0  0  0  0  0  0  0  0  0  0  0  0
    3.0322    4.5500   -0.1546 H   0  0  0  0  0  0  0  0  0  0  0  0
    1.5266    4.7761   -1.1054 H   0  0  0  0  0  0  0  0  0  0  0  0
    1.6735    4.5997    1.9489 H   0  0  0  0  0  0  0  0  0  0  0  0
    1.4502    6.0932    1.0228 H   0  0  0  0  0  0  0  0  0  0  0  0
    0.2040    4.8385    0.9940 H   0  0  0  0  0  0  0  0  0  0  0  0
   -1.3856   -1.2047    2.8608 H   0  0  0  0  0  0  0  0  0  0  0  0
   -2.0003   -2.8876    2.8575 H   0  0  0  0  0  0  0  0  0  0  0  0
   -3.1138   -1.5196    2.5351 H   0  0  0  0  0  0  0  0  0  0  0  0
   -3.6153    0.5810   -1.6195 H   0  0  0  0  0  0  0  0  0  0  0  0
   -3.1130    1.7058   -0.3326 H   0  0  0  0  0  0  0  0  0  0  0  0
   -4.7351    0.9495   -0.2720 H   0  0  0  0  0  0  0  0  0  0  0  0
  1  2  1  0  0  0  0
  2  3  1  0  0  0  0
  3  4  4  0  0  0  0
  4  5  2  0  0  0  0
  4  6  1  0  0  0  0
  6  7  1  0  0  0  0
  7  8  1  0  0  0  0
  7  9  1  0  0  0  0
  9 10  2  0  0  0  0
  9 11  4  0  0  0  0
 11 12  1  0  0  0  0
 12 13  1  0  0  0  0
  7 14  1  0  0  0  0
 14 15  1  0  0  0  0
 15 16  2  0  0  0  0
 15 17  2  0  0  0  0
 17 18  1  0  0  0  0
 15 19  1  0  0  0  0
 19 20  1  0  0  0  0
  1 21  1  0  0  0  0
  1 22  1  0  0  0  0
  1 23  1  0  0  0  0
  2 24  1  0  0  0  0
  2 25  1  0  0  0  0
  6 26  1  0  0  0  0
  6 27  1  0  0  0  0
 12 28  1  0  0  0  0
 12 29  1  0  0  0  0
 13 30  1  0  0  0  0
 13 31  1  0  0  0  0
 13 32  1  0  0  0  0
 18 33  1  0  0  0  0
 18 34  1  0  0  0  0
 18 35  1  0  0  0  0
 20 36  1  0  0  0  0
 20 37  1  0  0  0  0
 20 38  1  0  0  0  0
M  END
