 xtb: 6.7.1 (edcfbbe)
          04092507313D

 38 37  0     0  0            999 V2000
    5.1829   -2.3870   -1.6798 C   0  0  0  0  0  0  0  0  0  0  0  0
    4.5627   -1.0858   -1.1958 C   0  0  0  0  0  0  0  0  0  0  0  0
    3.1283   -1.1141   -1.3161 O   0  0  0  0  0  0  0  0  0  0  0  0
    2.4345   -1.6794   -0.3404 C   0  0  0  0  0  0  0  0  0  0  0  0
    2.9235   -2.2133    0.6278 O   0  0  0  0  0  0  0  0  0  0  0  0
    0.9419   -1.6341   -0.6163 C   0  0  0  0  0  0  0  0  0  0  0  0
    0.5220   -0.2448   -1.0804 C   0  0  0  0  0  0  0  0  0  0  0  0
    1.0303   -0.0095   -2.0230 H   0  0  0  0  0  0  0  0  0  0  0  0
    0.9486    0.8260   -0.0927 C   0  0  0  0  0  0  0  0  0  0  0  0
    1.9603    0.7278    0.5629 O   0  0  0  0  0  0  0  0  0  0  0  0
    0.1672    1.8876   -0.1250 O   0  0  0  0  0  0  0  0  0  0  0  0
    0.5703    3.0532    0.6264 C   0  0  0  0  0  0  0  0  0  0  0  0
    0.1680    2.9675    2.0878 C   0  0  0  0  0  0  0  0  0  0  0  0
   -1.2456   -0.1480   -1.4975 S   0  0  0  0  0  0  0  0  0  0  0  0
   -2.1155    0.1818    0.4126 P   0  0  0  0  0  0  0  0  0  0  0  0
   -1.1103   -0.4055    1.9911 S   0  0  0  0  0  0  0  0  0  0  0  0
   -2.5697    1.6910    0.5004 O   0  0  0  0  0  0  0  0  0  0  0  0
   -3.3666    2.3115   -0.5294 C   0  0  0  0  0  0  0  0  0  0  0  0
   -3.5383   -0.5306    0.2349 O   0  0  0  0  0  0  0  0  0  0  0  0
   -3.6546   -1.9552    0.1576 C   0  0  0  0  0  0  0  0  0  0  0  0
    4.8675   -3.2090   -1.0414 H   0  0  0  0  0  0  0  0  0  0  0  0
    4.8753   -2.5906   -2.7017 H   0  0  0  0  0  0  0  0  0  0  0  0
    6.2639   -2.3043   -1.6393 H   0  0  0  0  0  0  0  0  0  0  0  0
    4.8691   -0.2429   -1.8157 H   0  0  0  0  0  0  0  0  0  0  0  0
    4.8156   -0.8972   -0.1485 H   0  0  0  0  0  0  0  0  0  0  0  0
    0.4276   -1.9161    0.3045 H   0  0  0  0  0  0  0  0  0  0  0  0
    0.7137   -2.3618   -1.3967 H   0  0  0  0  0  0  0  0  0  0  0  0
    1.6558    3.1504    0.5349 H   0  0  0  0  0  0  0  0  0  0  0  0
    0.0644    3.8765    0.1218 H   0  0  0  0  0  0  0  0  0  0  0  0
    0.6722    2.1317    2.5696 H   0  0  0  0  0  0  0  0  0  0  0  0
    0.4506    3.8871    2.5892 H   0  0  0  0  0  0  0  0  0  0  0  0
   -0.9056    2.8208    2.1788 H   0  0  0  0  0  0  0  0  0  0  0  0
   -4.3391    1.8272   -0.5873 H   0  0  0  0  0  0  0  0  0  0  0  0
   -2.8535    2.2392   -1.4882 H   0  0  0  0  0  0  0  0  0  0  0  0
   -3.4690    3.3490   -0.2228 H   0  0  0  0  0  0  0  0  0  0  0  0
   -4.7142   -2.1694    0.2711 H   0  0  0  0  0  0  0  0  0  0  0  0
   -3.0848   -2.4235    0.9617 H   0  0  0  0  0  0  0  0  0  0  0  0
   -3.2934   -2.3040   -0.8095 H   0  0  0  0  0  0  0  0  0  0  0  0
  1  2  1  0  0  0  0
  2  3  1  0  0  0  0
  3  4  1  0  0  0  0
  4  5  2  0  0  0  0
  4  6  1  0  0  0  0
  6  7  1  0  0  0  0
  7  8  1  0  0  0  0
  7  9  1  0  0  0  0
  9 10  2  0  0  0  0
  9 11  1  0  0  0  0
 11 12  1  0  0  0  0
 12 13  1  0  0  0  0
  7 14  1  0  0  0  0
 14 15  1  0  0  0  0
 15 16  2  0  0  0  0
 15 17  2  0  0  0  0
 17 18  1  0  0  0  0
 15 19  1  0  0  0  0
 19 20  1  0  0  0  0
  1 21  1  0  0  0  0
  1 22  1  0  0  0  0
  1 23  1  0  0  0  0
  2 24  1  0  0  0  0
  2 25  1  0  0  0  0
  6 26  1  0  0  0  0
  6 27  1  0  0  0  0
 12 28  1  0  0  0  0
 12 29  1  0  0  0  0
 13 30  1  0  0  0  0
 13 31  1  0  0  0  0
 13 32  1  0  0  0  0
 18 33  1  0  0  0  0
 18 34  1  0  0  0  0
 18 35  1  0  0  0  0
 20 36  1  0  0  0  0
 20 37  1  0  0  0  0
 20 38  1  0  0  0  0
M  END
