 xtb: 6.7.1 (edcfbbe)
          04092507313D

 38 37  0     0  0            999 V2000
    2.0644   -3.3161   -2.8052 C   0  0  0  0  0  0  0  0  0  0  0  0
    3.0805   -3.0744   -1.7003 C   0  0  0  0  0  0  0  0  0  0  0  0
    2.8996   -1.7634   -1.1308 O   0  0  0  0  0  0  0  0  0  0  0  0
    2.0820   -1.6299   -0.1077 C   0  0  0  0  0  0  0  0  0  0  0  0
    1.5145   -2.5418    0.4511 O   0  0  0  0  0  0  0  0  0  0  0  0
    1.9052   -0.1695    0.2675 C   0  0  0  0  0  0  0  0  0  0  0  0
    1.0126    0.4933   -0.7859 C   0  0  0  0  0  0  0  0  0  0  0  0
    1.5482    0.5600   -1.7370 H   0  0  0  0  0  0  0  0  0  0  0  0
    0.5649    1.8831   -0.3648 C   0  0  0  0  0  0  0  0  0  0  0  0
   -0.6043    2.2113   -0.3450 O   0  0  0  0  0  0  0  0  0  0  0  0
    1.5776    2.6444   -0.0605 O   0  0  0  0  0  0  0  0  0  0  0  0
    1.3174    3.9731    0.4442 C   0  0  0  0  0  0  0  0  0  0  0  0
    1.2293    3.9489    1.9610 C   0  0  0  0  0  0  0  0  0  0  0  0
   -0.4774   -0.4881   -1.1628 S   0  0  0  0  0  0  0  0  0  0  0  0
   -1.7286   -0.0239    0.4960 P   0  0  0  0  0  0  0  0  0  0  0  0
   -0.9913    0.6064    2.1969 S   0  0  0  0  0  0  0  0  0  0  0  0
   -2.9543    0.8326   -0.0098 O   0  0  0  0  0  0  0  0  0  0  0  0
   -3.7052    0.5032   -1.1936 C   0  0  0  0  0  0  0  0  0  0  0  0
   -2.4613   -1.4493    0.6589 O   0  0  0  0  0  0  0  0  0  0  0  0
   -1.8011   -2.5535    1.2816 C   0  0  0  0  0  0  0  0  0  0  0  0
    1.0549   -3.2605   -2.4033 H   0  0  0  0  0  0  0  0  0  0  0  0
    2.1703   -2.5668   -3.5842 H   0  0  0  0  0  0  0  0  0  0  0  0
    2.2234   -4.3012   -3.2307 H   0  0  0  0  0  0  0  0  0  0  0  0
    4.0992   -3.0707   -2.0882 H   0  0  0  0  0  0  0  0  0  0  0  0
    2.9769   -3.8178   -0.9052 H   0  0  0  0  0  0  0  0  0  0  0  0
    2.8704    0.3355    0.2784 H   0  0  0  0  0  0  0  0  0  0  0  0
    1.4406   -0.1152    1.2540 H   0  0  0  0  0  0  0  0  0  0  0  0
    2.1652    4.5659    0.1011 H   0  0  0  0  0  0  0  0  0  0  0  0
    0.3861    4.3387    0.0041 H   0  0  0  0  0  0  0  0  0  0  0  0
    0.4157    3.2997    2.2811 H   0  0  0  0  0  0  0  0  0  0  0  0
    2.1566    3.5774    2.3871 H   0  0  0  0  0  0  0  0  0  0  0  0
    1.0425    4.9530    2.3265 H   0  0  0  0  0  0  0  0  0  0  0  0
   -4.4492    1.2905   -1.2811 H   0  0  0  0  0  0  0  0  0  0  0  0
   -4.1782   -0.4702   -1.0747 H   0  0  0  0  0  0  0  0  0  0  0  0
   -3.0462    0.4984   -2.0619 H   0  0  0  0  0  0  0  0  0  0  0  0
   -1.5789   -2.3132    2.3222 H   0  0  0  0  0  0  0  0  0  0  0  0
   -0.8702   -2.7934    0.7652 H   0  0  0  0  0  0  0  0  0  0  0  0
   -2.4985   -3.3842    1.2202 H   0  0  0  0  0  0  0  0  0  0  0  0
  1  2  1  0  0  0  0
  2  3  1  0  0  0  0
  3  4  1  0  0  0  0
  4  5  2  0  0  0  0
  4  6  1  0  0  0  0
  6  7  1  0  0  0  0
  7  8  1  0  0  0  0
  7  9  1  0  0  0  0
  9 10  2  0  0  0  0
  9 11  4  0  0  0  0
 11 12  1  0  0  0  0
 12 13  1  0  0  0  0
  7 14  1  0  0  0  0
 14 15  1  0  0  0  0
 15 16  2  0  0  0  0
 15 17  2  0  0  0  0
 17 18  1  0  0  0  0
 15 19  1  0  0  0  0
 19 20  1  0  0  0  0
  1 21  1  0  0  0  0
  1 22  1  0  0  0  0
  1 23  1  0  0  0  0
  2 24  1  0  0  0  0
  2 25  1  0  0  0  0
  6 26  1  0  0  0  0
  6 27  1  0  0  0  0
 12 28  1  0  0  0  0
 12 29  1  0  0  0  0
 13 30  1  0  0  0  0
 13 31  1  0  0  0  0
 13 32  1  0  0  0  0
 18 33  1  0  0  0  0
 18 34  1  0  0  0  0
 18 35  1  0  0  0  0
 20 36  1  0  0  0  0
 20 37  1  0  0  0  0
 20 38  1  0  0  0  0
M  END
