 xtb: 6.7.1 (edcfbbe)
          04092505203D

 41 40  0     0  0            999 V2000
    4.5097   -1.6337   -1.0637 C   0  0  0  0  0  0  0  0  0  0  0  0
    4.6336   -0.2028   -0.5820 C   0  0  0  0  0  0  0  0  0  0  0  0
    3.5818    0.1527    0.3304 O   0  0  0  0  0  0  0  0  0  0  0  0
    2.0654    0.3012   -0.1342 P   0  0  0  0  0  0  0  0  0  0  0  0
    1.8841    1.0579   -1.9398 S   0  0  0  0  0  0  0  0  0  0  0  0
    1.4640    1.0558    1.1250 O   0  0  0  0  0  0  0  0  0  0  0  0
    2.0042    2.2821    1.6664 C   0  0  0  0  0  0  0  0  0  0  0  0
    1.7361    3.4694    0.7642 C   0  0  0  0  0  0  0  0  0  0  0  0
    1.2051   -1.6033    0.1725 S   0  0  0  0  0  0  0  0  0  0  0  0
    0.1344   -1.7213   -1.2988 C   0  0  0  0  0  0  0  0  0  0  0  0
   -1.5963   -2.0751   -0.8985 S   0  0  0  0  0  0  0  0  0  0  0  0
   -2.0665   -0.3521    0.2126 P   0  0  0  0  0  0  0  0  0  0  0  0
   -1.3823    1.3872   -0.3966 S   0  0  0  0  0  0  0  0  0  0  0  0
   -1.5931   -0.8320    1.6456 O   0  0  0  0  0  0  0  0  0  0  0  0
   -1.3692    0.0752    2.7418 C   0  0  0  0  0  0  0  0  0  0  0  0
   -2.6530    0.7257    3.2122 C   0  0  0  0  0  0  0  0  0  0  0  0
   -3.6482   -0.4203    0.3526 O   0  0  0  0  0  0  0  0  0  0  0  0
   -4.5392    0.1947   -0.5931 C   0  0  0  0  0  0  0  0  0  0  0  0
   -4.4989   -0.4885   -1.9448 C   0  0  0  0  0  0  0  0  0  0  0  0
    4.4169   -2.3109   -0.2186 H   0  0  0  0  0  0  0  0  0  0  0  0
    3.6283   -1.7352   -1.6954 H   0  0  0  0  0  0  0  0  0  0  0  0
    5.3896   -1.8947   -1.6428 H   0  0  0  0  0  0  0  0  0  0  0  0
    4.6047    0.4904   -1.4289 H   0  0  0  0  0  0  0  0  0  0  0  0
    5.5455   -0.0485   -0.0036 H   0  0  0  0  0  0  0  0  0  0  0  0
    1.4893    2.3876    2.6234 H   0  0  0  0  0  0  0  0  0  0  0  0
    3.0747    2.1449    1.8353 H   0  0  0  0  0  0  0  0  0  0  0  0
    0.6770    3.5199    0.5181 H   0  0  0  0  0  0  0  0  0  0  0  0
    2.0335    4.3827    1.2693 H   0  0  0  0  0  0  0  0  0  0  0  0
    2.2960    3.3766   -0.1648 H   0  0  0  0  0  0  0  0  0  0  0  0
    0.4675   -2.5621   -1.9019 H   0  0  0  0  0  0  0  0  0  0  0  0
    0.2107   -0.7831   -1.8571 H   0  0  0  0  0  0  0  0  0  0  0  0
   -0.9244   -0.5563    3.5123 H   0  0  0  0  0  0  0  0  0  0  0  0
   -0.6454    0.8298    2.4187 H   0  0  0  0  0  0  0  0  0  0  0  0
   -2.4546    1.3115    4.1043 H   0  0  0  0  0  0  0  0  0  0  0  0
   -3.0413    1.3830    2.4349 H   0  0  0  0  0  0  0  0  0  0  0  0
   -3.3976   -0.0343    3.4340 H   0  0  0  0  0  0  0  0  0  0  0  0
   -5.5201    0.1043   -0.1245 H   0  0  0  0  0  0  0  0  0  0  0  0
   -4.2665    1.2509   -0.6887 H   0  0  0  0  0  0  0  0  0  0  0  0
   -4.6543   -1.5584   -1.8319 H   0  0  0  0  0  0  0  0  0  0  0  0
   -5.2749   -0.0740   -2.5804 H   0  0  0  0  0  0  0  0  0  0  0  0
   -3.5311   -0.3237   -2.4171 H   0  0  0  0  0  0  0  0  0  0  0  0
  1  2  1  0  0  0  0
  2  3  1  0  0  0  0
  3  4  2  0  0  0  0
  4  5  2  0  0  0  0
  4  6  2  0  0  0  0
  6  7  1  0  0  0  0
  7  8  1  0  0  0  0
  4  9  1  0  0  0  0
  9 10  1  0  0  0  0
 10 11  1  0  0  0  0
 11 12  1  0  0  0  0
 12 13  2  0  0  0  0
 12 14  2  0  0  0  0
 14 15  1  0  0  0  0
 15 16  1  0  0  0  0
 12 17  2  0  0  0  0
 17 18  1  0  0  0  0
 18 19  1  0  0  0  0
  1 20  1  0  0  0  0
  1 21  1  0  0  0  0
  1 22  1  0  0  0  0
  2 23  1  0  0  0  0
  2 24  1  0  0  0  0
  7 25  1  0  0  0  0
  7 26  1  0  0  0  0
  8 27  1  0  0  0  0
  8 28  1  0  0  0  0
  8 29  1  0  0  0  0
 10 30  1  0  0  0  0
 10 31  1  0  0  0  0
 15 32  1  0  0  0  0
 15 33  1  0  0  0  0
 16 34  1  0  0  0  0
 16 35  1  0  0  0  0
 16 36  1  0  0  0  0
 18 37  1  0  0  0  0
 18 38  1  0  0  0  0
 19 39  1  0  0  0  0
 19 40  1  0  0  0  0
 19 41  1  0  0  0  0
M  END
