 xtb: 6.7.1 (edcfbbe)
          04092505203D

 41 40  0     0  0            999 V2000
    1.1254   -1.7262    3.0265 C   0  0  0  0  0  0  0  0  0  0  0  0
    1.8082   -0.3915    2.8026 C   0  0  0  0  0  0  0  0  0  0  0  0
    1.4075    0.1806    1.5341 O   0  0  0  0  0  0  0  0  0  0  0  0
    2.2929    0.0248    0.2302 P   0  0  0  0  0  0  0  0  0  0  0  0
    3.0860   -1.7406   -0.1086 S   0  0  0  0  0  0  0  0  0  0  0  0
    3.3589    1.1859    0.4464 O   0  0  0  0  0  0  0  0  0  0  0  0
    4.5796    1.2602   -0.3097 C   0  0  0  0  0  0  0  0  0  0  0  0
    4.3253    1.5978   -1.7645 C   0  0  0  0  0  0  0  0  0  0  0  0
    0.9386    0.7670   -1.2080 S   0  0  0  0  0  0  0  0  0  0  0  0
    0.1052   -0.8159   -1.5083 C   0  0  0  0  0  0  0  0  0  0  0  0
   -0.9543   -1.3229   -0.1382 S   0  0  0  0  0  0  0  0  0  0  0  0
   -2.4312    0.1922   -0.4324 P   0  0  0  0  0  0  0  0  0  0  0  0
   -2.7961    0.6653   -2.2943 S   0  0  0  0  0  0  0  0  0  0  0  0
   -1.9650    1.4756    0.3530 O   0  0  0  0  0  0  0  0  0  0  0  0
   -1.6904    1.4930    1.7760 C   0  0  0  0  0  0  0  0  0  0  0  0
   -0.8142    2.6949    2.0612 C   0  0  0  0  0  0  0  0  0  0  0  0
   -3.6316   -0.3087    0.4821 O   0  0  0  0  0  0  0  0  0  0  0  0
   -4.2145   -1.6257    0.4497 C   0  0  0  0  0  0  0  0  0  0  0  0
   -4.6740   -2.0309   -0.9349 C   0  0  0  0  0  0  0  0  0  0  0  0
    1.4411   -2.4422    2.2707 H   0  0  0  0  0  0  0  0  0  0  0  0
    1.3936   -2.1046    4.0076 H   0  0  0  0  0  0  0  0  0  0  0  0
    0.0463   -1.6157    2.9651 H   0  0  0  0  0  0  0  0  0  0  0  0
    2.8958   -0.5009    2.8205 H   0  0  0  0  0  0  0  0  0  0  0  0
    1.5023    0.3463    3.5460 H   0  0  0  0  0  0  0  0  0  0  0  0
    5.1528    2.0408    0.1922 H   0  0  0  0  0  0  0  0  0  0  0  0
    5.0992    0.3003   -0.2234 H   0  0  0  0  0  0  0  0  0  0  0  0
    5.2729    1.7537   -2.2699 H   0  0  0  0  0  0  0  0  0  0  0  0
    3.7969    0.7780   -2.2502 H   0  0  0  0  0  0  0  0  0  0  0  0
    3.7203    2.4977   -1.8443 H   0  0  0  0  0  0  0  0  0  0  0  0
    0.8502   -1.6007   -1.6420 H   0  0  0  0  0  0  0  0  0  0  0  0
   -0.5038   -0.6812   -2.4029 H   0  0  0  0  0  0  0  0  0  0  0  0
   -2.6472    1.5562    2.2975 H   0  0  0  0  0  0  0  0  0  0  0  0
   -1.1874    0.5603    2.0472 H   0  0  0  0  0  0  0  0  0  0  0  0
   -0.6538    2.7748    3.1316 H   0  0  0  0  0  0  0  0  0  0  0  0
    0.1448    2.5869    1.5600 H   0  0  0  0  0  0  0  0  0  0  0  0
   -1.2966    3.5984    1.6995 H   0  0  0  0  0  0  0  0  0  0  0  0
   -3.4757   -2.3342    0.8342 H   0  0  0  0  0  0  0  0  0  0  0  0
   -5.0541   -1.5499    1.1429 H   0  0  0  0  0  0  0  0  0  0  0  0
   -5.3524   -1.2855   -1.3432 H   0  0  0  0  0  0  0  0  0  0  0  0
   -3.8195   -2.1189   -1.6043 H   0  0  0  0  0  0  0  0  0  0  0  0
   -5.1813   -2.9887   -0.8805 H   0  0  0  0  0  0  0  0  0  0  0  0
  1  2  1  0  0  0  0
  2  3  1  0  0  0  0
  3  4  2  0  0  0  0
  4  5  2  0  0  0  0
  4  6  2  0  0  0  0
  6  7  1  0  0  0  0
  7  8  1  0  0  0  0
  4  9  1  0  0  0  0
  9 10  1  0  0  0  0
 10 11  1  0  0  0  0
 11 12  1  0  0  0  0
 12 13  2  0  0  0  0
 12 14  2  0  0  0  0
 14 15  1  0  0  0  0
 15 16  1  0  0  0  0
 12 17  2  0  0  0  0
 17 18  1  0  0  0  0
 18 19  1  0  0  0  0
  1 20  1  0  0  0  0
  1 21  1  0  0  0  0
  1 22  1  0  0  0  0
  2 23  1  0  0  0  0
  2 24  1  0  0  0  0
  7 25  1  0  0  0  0
  7 26  1  0  0  0  0
  8 27  1  0  0  0  0
  8 28  1  0  0  0  0
  8 29  1  0  0  0  0
 10 30  1  0  0  0  0
 10 31  1  0  0  0  0
 15 32  1  0  0  0  0
 15 33  1  0  0  0  0
 16 34  1  0  0  0  0
 16 35  1  0  0  0  0
 16 36  1  0  0  0  0
 18 37  1  0  0  0  0
 18 38  1  0  0  0  0
 19 39  1  0  0  0  0
 19 40  1  0  0  0  0
 19 41  1  0  0  0  0
M  END
