 xtb: 6.7.1 (edcfbbe)
          04032520273D

 12 12  0     0  0            999 V2000
   -0.6678    1.2509    0.0000 C   0  0  0  0  0  0  0  0  0  0  0  0
    0.6681    1.2508    0.0003 C   0  0  0  0  0  0  0  0  0  0  0  0
    1.4471   -0.0000   -0.0001 C   0  0  0  0  0  0  0  0  0  0  0  0
    2.6689    0.0000   -0.0001 O   0  0  0  0  0  0  0  0  0  0  0  0
    0.6680   -1.2509    0.0001 C   0  0  0  0  0  0  0  0  0  0  0  0
   -0.6681   -1.2510    0.0002 C   0  0  0  0  0  0  0  0  0  0  0  0
   -1.4470    0.0000   -0.0002 C   0  0  0  0  0  0  0  0  0  0  0  0
   -2.6690    0.0001   -0.0001 O   0  0  0  0  0  0  0  0  0  0  0  0
   -1.2421    2.1659    0.0004 H   0  0  0  0  0  0  0  0  0  0  0  0
    1.2425    2.1657    0.0000 H   0  0  0  0  0  0  0  0  0  0  0  0
    1.2425   -2.1658    0.0002 H   0  0  0  0  0  0  0  0  0  0  0  0
   -1.2426   -2.1659    0.0007 H   0  0  0  0  0  0  0  0  0  0  0  0
  1  2  2  0  0  0  0
  2  3  1  0  0  0  0
  3  4  2  0  0  0  0
  3  5  1  0  0  0  0
  5  6  2  0  0  0  0
  1  7  1  0  0  0  0
  6  7  1  0  0  0  0
  7  8  2  0  0  0  0
  1  9  1  0  0  0  0
  2 10  1  0  0  0  0
  5 11  1  0  0  0  0
  6 12  1  0  0  0  0
M  END
