 xtb: 6.7.1 (edcfbbe)
          04092505203D

 41 40  0     0  0            999 V2000
    5.0980   -0.7236   -2.6697 C   0  0  0  0  0  0  0  0  0  0  0  0
    3.7405   -1.0823   -2.1008 C   0  0  0  0  0  0  0  0  0  0  0  0
    3.4488   -0.1595   -1.0310 O   0  0  0  0  0  0  0  0  0  0  0  0
    1.9616    0.0599   -0.5127 P   0  0  0  0  0  0  0  0  0  0  0  0
    0.6824    0.5216   -1.9194 S   0  0  0  0  0  0  0  0  0  0  0  0
    2.1355    1.2208    0.5308 O   0  0  0  0  0  0  0  0  0  0  0  0
    3.1387    1.2653    1.5798 C   0  0  0  0  0  0  0  0  0  0  0  0
    2.5652    0.7927    2.9011 C   0  0  0  0  0  0  0  0  0  0  0  0
    1.6359   -1.7658    0.5264 S   0  0  0  0  0  0  0  0  0  0  0  0
    0.0083   -1.4656    1.2685 C   0  0  0  0  0  0  0  0  0  0  0  0
   -1.3703   -1.4941    0.0877 S   0  0  0  0  0  0  0  0  0  0  0  0
   -2.0806    0.5093    0.2851 P   0  0  0  0  0  0  0  0  0  0  0  0
   -0.9876    1.6629    1.4300 S   0  0  0  0  0  0  0  0  0  0  0  0
   -3.6032    0.3045    0.7192 O   0  0  0  0  0  0  0  0  0  0  0  0
   -4.0641   -0.5435    1.7854 C   0  0  0  0  0  0  0  0  0  0  0  0
   -3.5937   -0.0782    3.1484 C   0  0  0  0  0  0  0  0  0  0  0  0
   -2.2817    1.1903   -1.1162 O   0  0  0  0  0  0  0  0  0  0  0  0
   -3.2503    0.8161   -2.1244 C   0  0  0  0  0  0  0  0  0  0  0  0
   -3.0008   -0.5701   -2.6793 C   0  0  0  0  0  0  0  0  0  0  0  0
    5.8562   -0.7917   -1.8952 H   0  0  0  0  0  0  0  0  0  0  0  0
    5.3395   -1.4129   -3.4720 H   0  0  0  0  0  0  0  0  0  0  0  0
    5.0826    0.2903   -3.0599 H   0  0  0  0  0  0  0  0  0  0  0  0
    3.7336   -2.0935   -1.6857 H   0  0  0  0  0  0  0  0  0  0  0  0
    2.9525   -0.9976   -2.8566 H   0  0  0  0  0  0  0  0  0  0  0  0
    3.9991    0.6688    1.2727 H   0  0  0  0  0  0  0  0  0  0  0  0
    3.4144    2.3199    1.6259 H   0  0  0  0  0  0  0  0  0  0  0  0
    1.6193    1.2968    3.0896 H   0  0  0  0  0  0  0  0  0  0  0  0
    2.4034   -0.2822    2.8932 H   0  0  0  0  0  0  0  0  0  0  0  0
    3.2631    1.0380    3.6952 H   0  0  0  0  0  0  0  0  0  0  0  0
    0.0088   -0.4915    1.7679 H   0  0  0  0  0  0  0  0  0  0  0  0
   -0.1385   -2.2811    1.9718 H   0  0  0  0  0  0  0  0  0  0  0  0
   -5.1511   -0.4896    1.7013 H   0  0  0  0  0  0  0  0  0  0  0  0
   -3.7274   -1.5648    1.5844 H   0  0  0  0  0  0  0  0  0  0  0  0
   -3.8814    0.9572    3.3137 H   0  0  0  0  0  0  0  0  0  0  0  0
   -4.0408   -0.7032    3.9145 H   0  0  0  0  0  0  0  0  0  0  0  0
   -2.5098   -0.1452    3.2192 H   0  0  0  0  0  0  0  0  0  0  0  0
   -4.2472    0.8976   -1.6863 H   0  0  0  0  0  0  0  0  0  0  0  0
   -3.1123    1.5813   -2.8900 H   0  0  0  0  0  0  0  0  0  0  0  0
   -1.9646   -0.6579   -3.0001 H   0  0  0  0  0  0  0  0  0  0  0  0
   -3.2011   -1.3286   -1.9239 H   0  0  0  0  0  0  0  0  0  0  0  0
   -3.6545   -0.7360   -3.5297 H   0  0  0  0  0  0  0  0  0  0  0  0
  1  2  1  0  0  0  0
  2  3  1  0  0  0  0
  3  4  2  0  0  0  0
  4  5  2  0  0  0  0
  4  6  2  0  0  0  0
  6  7  1  0  0  0  0
  7  8  1  0  0  0  0
  4  9  1  0  0  0  0
  9 10  1  0  0  0  0
 10 11  1  0  0  0  0
 11 12  1  0  0  0  0
 12 13  2  0  0  0  0
 12 14  2  0  0  0  0
 14 15  1  0  0  0  0
 15 16  1  0  0  0  0
 12 17  2  0  0  0  0
 17 18  1  0  0  0  0
 18 19  1  0  0  0  0
  1 20  1  0  0  0  0
  1 21  1  0  0  0  0
  1 22  1  0  0  0  0
  2 23  1  0  0  0  0
  2 24  1  0  0  0  0
  7 25  1  0  0  0  0
  7 26  1  0  0  0  0
  8 27  1  0  0  0  0
  8 28  1  0  0  0  0
  8 29  1  0  0  0  0
 10 30  1  0  0  0  0
 10 31  1  0  0  0  0
 15 32  1  0  0  0  0
 15 33  1  0  0  0  0
 16 34  1  0  0  0  0
 16 35  1  0  0  0  0
 16 36  1  0  0  0  0
 18 37  1  0  0  0  0
 18 38  1  0  0  0  0
 19 39  1  0  0  0  0
 19 40  1  0  0  0  0
 19 41  1  0  0  0  0
M  END
