 xtb: 6.7.1 (edcfbbe)
          04032520513D

 17 17  0     0  0            999 V2000
    2.4012    1.1052   -0.0015 C   0  0  0  0  0  0  0  0  0  0  0  0
    1.1511    0.2818    0.0017 C   0  0  0  0  0  0  0  0  0  0  0  0
    1.1920   -1.1082    0.0011 C   0  0  0  0  0  0  0  0  0  0  0  0
   -0.0025   -1.8109   -0.0001 C   0  0  0  0  0  0  0  0  0  0  0  0
   -1.1927   -1.1072   -0.0010 C   0  0  0  0  0  0  0  0  0  0  0  0
   -1.1455    0.2858   -0.0008 C   0  0  0  0  0  0  0  0  0  0  0  0
    0.0014    0.9512    0.0006 N   0  0  0  0  0  0  0  0  0  0  0  0
   -2.4021    1.0996    0.0007 C   0  0  0  0  0  0  0  0  0  0  0  0
    2.3805    1.8087    0.8271 H   0  0  0  0  0  0  0  0  0  0  0  0
    3.2810    0.4739    0.0785 H   0  0  0  0  0  0  0  0  0  0  0  0
    2.4563    1.6835   -0.9211 H   0  0  0  0  0  0  0  0  0  0  0  0
    2.1385   -1.6261    0.0018 H   0  0  0  0  0  0  0  0  0  0  0  0
   -0.0025   -2.8914   -0.0005 H   0  0  0  0  0  0  0  0  0  0  0  0
   -2.1434   -1.6173   -0.0019 H   0  0  0  0  0  0  0  0  0  0  0  0
   -2.9721    0.9030    0.9066 H   0  0  0  0  0  0  0  0  0  0  0  0
   -2.1543    2.1551   -0.0446 H   0  0  0  0  0  0  0  0  0  0  0  0
   -3.0218    0.8352   -0.8534 H   0  0  0  0  0  0  0  0  0  0  0  0
  1  2  1  0  0  0  0
  2  3  4  0  0  0  0
  3  4  4  0  0  0  0
  4  5  4  0  0  0  0
  5  6  4  0  0  0  0
  2  7  4  0  0  0  0
  6  7  4  0  0  0  0
  6  8  1  0  0  0  0
  1  9  1  0  0  0  0
  1 10  1  0  0  0  0
  1 11  1  0  0  0  0
  3 12  1  0  0  0  0
  4 13  1  0  0  0  0
  5 14  1  0  0  0  0
  8 15  1  0  0  0  0
  8 16  1  0  0  0  0
  8 17  1  0  0  0  0
M  END
