 xtb: 6.7.1 (edcfbbe)
          04092507313D

 38 37  0     0  0            999 V2000
    4.2197   -4.3546   -1.1316 C   0  0  0  0  0  0  0  0  0  0  0  0
    3.9757   -2.9409   -0.6421 C   0  0  0  0  0  0  0  0  0  0  0  0
    2.7997   -2.4340   -1.3091 O   0  0  0  0  0  0  0  0  0  0  0  0
    2.2147   -1.3677   -0.8219 C   0  0  0  0  0  0  0  0  0  0  0  0
    2.6004   -0.7591    0.1580 O   0  0  0  0  0  0  0  0  0  0  0  0
    0.9681   -0.9986   -1.5940 C   0  0  0  0  0  0  0  0  0  0  0  0
    0.6311    0.4825   -1.4184 C   0  0  0  0  0  0  0  0  0  0  0  0
    1.1617    1.1104   -2.1340 H   0  0  0  0  0  0  0  0  0  0  0  0
    0.9057    0.9785   -0.0134 C   0  0  0  0  0  0  0  0  0  0  0  0
    0.2119    0.6068    0.9213 O   0  0  0  0  0  0  0  0  0  0  0  0
    1.8260    1.8938    0.0425 O   0  0  0  0  0  0  0  0  0  0  0  0
    2.1332    2.4815    1.3268 C   0  0  0  0  0  0  0  0  0  0  0  0
    1.1628    3.6030    1.6592 C   0  0  0  0  0  0  0  0  0  0  0  0
   -1.1531    0.7780   -1.6729 S   0  0  0  0  0  0  0  0  0  0  0  0
   -2.0396    0.3123    0.2056 P   0  0  0  0  0  0  0  0  0  0  0  0
   -2.3513    1.5840    1.6772 S   0  0  0  0  0  0  0  0  0  0  0  0
   -3.4090    0.0883   -0.6155 O   0  0  0  0  0  0  0  0  0  0  0  0
   -4.6712   -0.0910    0.0279 C   0  0  0  0  0  0  0  0  0  0  0  0
   -1.7554   -1.2119    0.6316 O   0  0  0  0  0  0  0  0  0  0  0  0
   -1.1289   -1.6116    1.8479 C   0  0  0  0  0  0  0  0  0  0  0  0
    5.1138   -4.7472   -0.6590 H   0  0  0  0  0  0  0  0  0  0  0  0
    3.3752   -4.9900   -0.8823 H   0  0  0  0  0  0  0  0  0  0  0  0
    4.3533   -4.3558   -2.2090 H   0  0  0  0  0  0  0  0  0  0  0  0
    4.8117   -2.2794   -0.8869 H   0  0  0  0  0  0  0  0  0  0  0  0
    3.8069   -2.9015    0.4383 H   0  0  0  0  0  0  0  0  0  0  0  0
    0.1565   -1.6136   -1.1919 H   0  0  0  0  0  0  0  0  0  0  0  0
    1.0844   -1.2507   -2.6465 H   0  0  0  0  0  0  0  0  0  0  0  0
    2.0988    1.6928    2.0824 H   0  0  0  0  0  0  0  0  0  0  0  0
    3.1507    2.8533    1.2093 H   0  0  0  0  0  0  0  0  0  0  0  0
    1.4643    4.0707    2.5904 H   0  0  0  0  0  0  0  0  0  0  0  0
    1.1623    4.3467    0.8671 H   0  0  0  0  0  0  0  0  0  0  0  0
    0.1528    3.2139    1.7779 H   0  0  0  0  0  0  0  0  0  0  0  0
   -4.7620    0.5899    0.8776 H   0  0  0  0  0  0  0  0  0  0  0  0
   -4.7710   -1.1214    0.3677 H   0  0  0  0  0  0  0  0  0  0  0  0
   -5.4230    0.1393   -0.7231 H   0  0  0  0  0  0  0  0  0  0  0  0
   -1.3036   -0.8648    2.6241 H   0  0  0  0  0  0  0  0  0  0  0  0
   -0.0556   -1.7211    1.6958 H   0  0  0  0  0  0  0  0  0  0  0  0
   -1.5824   -2.5623    2.1191 H   0  0  0  0  0  0  0  0  0  0  0  0
  1  2  1  0  0  0  0
  2  3  1  0  0  0  0
  3  4  4  0  0  0  0
  4  5  2  0  0  0  0
  4  6  1  0  0  0  0
  6  7  1  0  0  0  0
  7  8  1  0  0  0  0
  7  9  1  0  0  0  0
  9 10  2  0  0  0  0
  9 11  4  0  0  0  0
 11 12  1  0  0  0  0
 12 13  1  0  0  0  0
  7 14  1  0  0  0  0
 14 15  1  0  0  0  0
 15 16  2  0  0  0  0
 15 17  1  0  0  0  0
 17 18  1  0  0  0  0
 15 19  1  0  0  0  0
 19 20  1  0  0  0  0
  1 21  1  0  0  0  0
  1 22  1  0  0  0  0
  1 23  1  0  0  0  0
  2 24  1  0  0  0  0
  2 25  1  0  0  0  0
  6 26  1  0  0  0  0
  6 27  1  0  0  0  0
 12 28  1  0  0  0  0
 12 29  1  0  0  0  0
 13 30  1  0  0  0  0
 13 31  1  0  0  0  0
 13 32  1  0  0  0  0
 18 33  1  0  0  0  0
 18 34  1  0  0  0  0
 18 35  1  0  0  0  0
 20 36  1  0  0  0  0
 20 37  1  0  0  0  0
 20 38  1  0  0  0  0
M  END
