 xtb: 6.7.1 (edcfbbe)
          04092505203D

 41 40  0     0  0            999 V2000
    3.0826    0.5985    3.1155 C   0  0  0  0  0  0  0  0  0  0  0  0
    1.6799    0.2275    2.6848 C   0  0  0  0  0  0  0  0  0  0  0  0
    1.4672    0.4979    1.2805 O   0  0  0  0  0  0  0  0  0  0  0  0
    2.1968   -0.3463    0.1598 P   0  0  0  0  0  0  0  0  0  0  0  0
    2.6057   -2.2159    0.5986 S   0  0  0  0  0  0  0  0  0  0  0  0
    3.4531    0.5662   -0.1684 O   0  0  0  0  0  0  0  0  0  0  0  0
    4.4849    0.1351   -1.0787 C   0  0  0  0  0  0  0  0  0  0  0  0
    5.7236    0.9646   -0.8061 C   0  0  0  0  0  0  0  0  0  0  0  0
    0.9287   -0.0397   -1.5048 S   0  0  0  0  0  0  0  0  0  0  0  0
   -0.1685   -1.4473   -1.1761 C   0  0  0  0  0  0  0  0  0  0  0  0
   -1.2079   -1.2044    0.2809 S   0  0  0  0  0  0  0  0  0  0  0  0
   -2.3880    0.3766   -0.5489 P   0  0  0  0  0  0  0  0  0  0  0  0
   -2.7564    0.2565   -2.4629 S   0  0  0  0  0  0  0  0  0  0  0  0
   -1.6204    1.7023   -0.1737 O   0  0  0  0  0  0  0  0  0  0  0  0
   -1.3493    2.1065    1.1901 C   0  0  0  0  0  0  0  0  0  0  0  0
   -2.3580    3.1384    1.6504 C   0  0  0  0  0  0  0  0  0  0  0  0
   -3.6577    0.4312    0.4058 O   0  0  0  0  0  0  0  0  0  0  0  0
   -4.8406   -0.3546    0.1668 C   0  0  0  0  0  0  0  0  0  0  0  0
   -4.5859   -1.8415    0.3018 C   0  0  0  0  0  0  0  0  0  0  0  0
    3.1772    0.4678    4.1889 H   0  0  0  0  0  0  0  0  0  0  0  0
    3.8034   -0.0474    2.6155 H   0  0  0  0  0  0  0  0  0  0  0  0
    3.2959    1.6315    2.8539 H   0  0  0  0  0  0  0  0  0  0  0  0
    0.9262    0.8348    3.1872 H   0  0  0  0  0  0  0  0  0  0  0  0
    1.4847   -0.8343    2.8655 H   0  0  0  0  0  0  0  0  0  0  0  0
    4.6714   -0.9318   -0.9149 H   0  0  0  0  0  0  0  0  0  0  0  0
    4.1221    0.2813   -2.0998 H   0  0  0  0  0  0  0  0  0  0  0  0
    6.5036    0.6779   -1.5037 H   0  0  0  0  0  0  0  0  0  0  0  0
    5.4971    2.0193   -0.9322 H   0  0  0  0  0  0  0  0  0  0  0  0
    6.0717    0.7973    0.2092 H   0  0  0  0  0  0  0  0  0  0  0  0
    0.4299   -2.3400   -0.9931 H   0  0  0  0  0  0  0  0  0  0  0  0
   -0.7989   -1.5593   -2.0580 H   0  0  0  0  0  0  0  0  0  0  0  0
   -1.3664    1.2200    1.8307 H   0  0  0  0  0  0  0  0  0  0  0  0
   -0.3381    2.5178    1.1582 H   0  0  0  0  0  0  0  0  0  0  0  0
   -2.0881    3.4811    2.6444 H   0  0  0  0  0  0  0  0  0  0  0  0
   -2.3614    3.9833    0.9672 H   0  0  0  0  0  0  0  0  0  0  0  0
   -3.3539    2.7045    1.6773 H   0  0  0  0  0  0  0  0  0  0  0  0
   -5.5448    0.0025    0.9195 H   0  0  0  0  0  0  0  0  0  0  0  0
   -5.2123   -0.1179   -0.8347 H   0  0  0  0  0  0  0  0  0  0  0  0
   -4.1061   -2.0609    1.2524 H   0  0  0  0  0  0  0  0  0  0  0  0
   -5.5308   -2.3721    0.2433 H   0  0  0  0  0  0  0  0  0  0  0  0
   -3.9401   -2.1842   -0.5052 H   0  0  0  0  0  0  0  0  0  0  0  0
  1  2  1  0  0  0  0
  2  3  1  0  0  0  0
  3  4  2  0  0  0  0
  4  5  2  0  0  0  0
  4  6  2  0  0  0  0
  6  7  1  0  0  0  0
  7  8  1  0  0  0  0
  4  9  1  0  0  0  0
  9 10  1  0  0  0  0
 10 11  1  0  0  0  0
 11 12  1  0  0  0  0
 12 13  2  0  0  0  0
 12 14  2  0  0  0  0
 14 15  1  0  0  0  0
 15 16  1  0  0  0  0
 12 17  2  0  0  0  0
 17 18  1  0  0  0  0
 18 19  1  0  0  0  0
  1 20  1  0  0  0  0
  1 21  1  0  0  0  0
  1 22  1  0  0  0  0
  2 23  1  0  0  0  0
  2 24  1  0  0  0  0
  7 25  1  0  0  0  0
  7 26  1  0  0  0  0
  8 27  1  0  0  0  0
  8 28  1  0  0  0  0
  8 29  1  0  0  0  0
 10 30  1  0  0  0  0
 10 31  1  0  0  0  0
 15 32  1  0  0  0  0
 15 33  1  0  0  0  0
 16 34  1  0  0  0  0
 16 35  1  0  0  0  0
 16 36  1  0  0  0  0
 18 37  1  0  0  0  0
 18 38  1  0  0  0  0
 19 39  1  0  0  0  0
 19 40  1  0  0  0  0
 19 41  1  0  0  0  0
M  END
