 xtb: 6.7.1 (edcfbbe)
          04092505203D

 41 40  0     0  0            999 V2000
    4.8296   -0.5808    0.8041 C   0  0  0  0  0  0  0  0  0  0  0  0
    4.3768   -1.2755   -0.4628 C   0  0  0  0  0  0  0  0  0  0  0  0
    3.3870   -0.5207   -1.1952 O   0  0  0  0  0  0  0  0  0  0  0  0
    1.9937    0.0055   -0.6327 P   0  0  0  0  0  0  0  0  0  0  0  0
    0.8513    0.4146   -2.1655 S   0  0  0  0  0  0  0  0  0  0  0  0
    2.3235    1.1988    0.3650 O   0  0  0  0  0  0  0  0  0  0  0  0
    2.1753    2.5816    0.0048 C   0  0  0  0  0  0  0  0  0  0  0  0
    3.2986    3.0331   -0.9060 C   0  0  0  0  0  0  0  0  0  0  0  0
    1.3657   -1.4964    0.7216 S   0  0  0  0  0  0  0  0  0  0  0  0
   -0.0107   -2.2164   -0.2350 C   0  0  0  0  0  0  0  0  0  0  0  0
   -1.6012   -2.1547    0.6323 S   0  0  0  0  0  0  0  0  0  0  0  0
   -2.1314   -0.1366    0.3496 P   0  0  0  0  0  0  0  0  0  0  0  0
   -0.9128    1.3020    0.9117 S   0  0  0  0  0  0  0  0  0  0  0  0
   -3.5598   -0.0599    1.0399 O   0  0  0  0  0  0  0  0  0  0  0  0
   -3.7338    0.3086    2.4185 C   0  0  0  0  0  0  0  0  0  0  0  0
   -3.1705   -0.7359    3.3603 C   0  0  0  0  0  0  0  0  0  0  0  0
   -2.4943   -0.1999   -1.1893 O   0  0  0  0  0  0  0  0  0  0  0  0
   -2.6727    0.9706   -2.0109 C   0  0  0  0  0  0  0  0  0  0  0  0
   -3.8315    1.8244   -1.5436 C   0  0  0  0  0  0  0  0  0  0  0  0
    5.6019   -1.1777    1.2793 H   0  0  0  0  0  0  0  0  0  0  0  0
    5.2270    0.4049    0.5768 H   0  0  0  0  0  0  0  0  0  0  0  0
    3.9914   -0.4724    1.4915 H   0  0  0  0  0  0  0  0  0  0  0  0
    3.9555   -2.2575   -0.2326 H   0  0  0  0  0  0  0  0  0  0  0  0
    5.1920   -1.3807   -1.1805 H   0  0  0  0  0  0  0  0  0  0  0  0
    1.2014    2.7201   -0.4753 H   0  0  0  0  0  0  0  0  0  0  0  0
    2.1801    3.1076    0.9604 H   0  0  0  0  0  0  0  0  0  0  0  0
    3.2819    2.4478   -1.8255 H   0  0  0  0  0  0  0  0  0  0  0  0
    3.1652    4.0821   -1.1502 H   0  0  0  0  0  0  0  0  0  0  0  0
    4.2594    2.8953   -0.4175 H   0  0  0  0  0  0  0  0  0  0  0  0
    0.2001   -3.2726   -0.3783 H   0  0  0  0  0  0  0  0  0  0  0  0
   -0.0911   -1.6904   -1.1901 H   0  0  0  0  0  0  0  0  0  0  0  0
   -3.2471    1.2756    2.5823 H   0  0  0  0  0  0  0  0  0  0  0  0
   -4.8142    0.4115    2.5276 H   0  0  0  0  0  0  0  0  0  0  0  0
   -3.4225   -0.4734    4.3827 H   0  0  0  0  0  0  0  0  0  0  0  0
   -3.5782   -1.7159    3.1251 H   0  0  0  0  0  0  0  0  0  0  0  0
   -2.0858   -0.7769    3.2632 H   0  0  0  0  0  0  0  0  0  0  0  0
   -1.7374    1.5392   -2.0104 H   0  0  0  0  0  0  0  0  0  0  0  0
   -2.8415    0.5600   -3.0074 H   0  0  0  0  0  0  0  0  0  0  0  0
   -3.6068    2.2517   -0.5669 H   0  0  0  0  0  0  0  0  0  0  0  0
   -3.9908    2.6302   -2.2532 H   0  0  0  0  0  0  0  0  0  0  0  0
   -4.7332    1.2223   -1.4666 H   0  0  0  0  0  0  0  0  0  0  0  0
  1  2  1  0  0  0  0
  2  3  1  0  0  0  0
  3  4  2  0  0  0  0
  4  5  2  0  0  0  0
  4  6  2  0  0  0  0
  6  7  1  0  0  0  0
  7  8  1  0  0  0  0
  4  9  1  0  0  0  0
  9 10  1  0  0  0  0
 10 11  1  0  0  0  0
 11 12  1  0  0  0  0
 12 13  2  0  0  0  0
 12 14  2  0  0  0  0
 14 15  1  0  0  0  0
 15 16  1  0  0  0  0
 12 17  2  0  0  0  0
 17 18  1  0  0  0  0
 18 19  1  0  0  0  0
  1 20  1  0  0  0  0
  1 21  1  0  0  0  0
  1 22  1  0  0  0  0
  2 23  1  0  0  0  0
  2 24  1  0  0  0  0
  7 25  1  0  0  0  0
  7 26  1  0  0  0  0
  8 27  1  0  0  0  0
  8 28  1  0  0  0  0
  8 29  1  0  0  0  0
 10 30  1  0  0  0  0
 10 31  1  0  0  0  0
 15 32  1  0  0  0  0
 15 33  1  0  0  0  0
 16 34  1  0  0  0  0
 16 35  1  0  0  0  0
 16 36  1  0  0  0  0
 18 37  1  0  0  0  0
 18 38  1  0  0  0  0
 19 39  1  0  0  0  0
 19 40  1  0  0  0  0
 19 41  1  0  0  0  0
M  END
