 xtb: 6.7.1 (edcfbbe)
          04092505203D

 41 40  0     0  0            999 V2000
    4.3239    0.0922   -1.7918 C   0  0  0  0  0  0  0  0  0  0  0  0
    4.4280    0.1485   -0.2812 C   0  0  0  0  0  0  0  0  0  0  0  0
    3.4527   -0.6856    0.3610 O   0  0  0  0  0  0  0  0  0  0  0  0
    1.8902   -0.3596    0.3282 P   0  0  0  0  0  0  0  0  0  0  0  0
    1.5169    1.5671    0.4559 S   0  0  0  0  0  0  0  0  0  0  0  0
    1.3761   -1.3359    1.4637 O   0  0  0  0  0  0  0  0  0  0  0  0
    2.0433   -1.5251    2.7299 C   0  0  0  0  0  0  0  0  0  0  0  0
    2.0186   -0.2718    3.5812 C   0  0  0  0  0  0  0  0  0  0  0  0
    1.1467   -1.3772   -1.3725 S   0  0  0  0  0  0  0  0  0  0  0  0
    0.2133   -0.0564   -2.1958 C   0  0  0  0  0  0  0  0  0  0  0  0
   -1.5834   -0.3601   -2.2709 S   0  0  0  0  0  0  0  0  0  0  0  0
   -2.1748    0.3262   -0.3813 P   0  0  0  0  0  0  0  0  0  0  0  0
   -4.0784    0.2226    0.0621 S   0  0  0  0  0  0  0  0  0  0  0  0
   -1.5408    1.7759   -0.4442 O   0  0  0  0  0  0  0  0  0  0  0  0
   -1.8035    2.7644    0.5770 C   0  0  0  0  0  0  0  0  0  0  0  0
   -2.8272    3.7643    0.0812 C   0  0  0  0  0  0  0  0  0  0  0  0
   -1.2333   -0.4119    0.6950 O   0  0  0  0  0  0  0  0  0  0  0  0
   -1.7220   -1.5641    1.4042 C   0  0  0  0  0  0  0  0  0  0  0  0
   -1.7516   -2.7967    0.5240 C   0  0  0  0  0  0  0  0  0  0  0  0
    4.3317   -0.9398   -2.1332 H   0  0  0  0  0  0  0  0  0  0  0  0
    3.3988    0.5655   -2.1184 H   0  0  0  0  0  0  0  0  0  0  0  0
    5.1627    0.6241   -2.2293 H   0  0  0  0  0  0  0  0  0  0  0  0
    4.2942    1.1755    0.0743 H   0  0  0  0  0  0  0  0  0  0  0  0
    5.3828   -0.2446    0.0707 H   0  0  0  0  0  0  0  0  0  0  0  0
    1.4831   -2.3376    3.1965 H   0  0  0  0  0  0  0  0  0  0  0  0
    3.0687   -1.8472    2.5377 H   0  0  0  0  0  0  0  0  0  0  0  0
    0.9963    0.0740    3.7192 H   0  0  0  0  0  0  0  0  0  0  0  0
    2.4596   -0.4828    4.5503 H   0  0  0  0  0  0  0  0  0  0  0  0
    2.5867    0.5221    3.0977 H   0  0  0  0  0  0  0  0  0  0  0  0
    0.5327   -0.0213   -3.2336 H   0  0  0  0  0  0  0  0  0  0  0  0
    0.4002    0.8897   -1.6828 H   0  0  0  0  0  0  0  0  0  0  0  0
   -2.1497    2.2616    1.4845 H   0  0  0  0  0  0  0  0  0  0  0  0
   -0.8351    3.2322    0.7684 H   0  0  0  0  0  0  0  0  0  0  0  0
   -2.4869    4.2145   -0.8469 H   0  0  0  0  0  0  0  0  0  0  0  0
   -3.7786    3.2667   -0.0954 H   0  0  0  0  0  0  0  0  0  0  0  0
   -2.9626    4.5377    0.8303 H   0  0  0  0  0  0  0  0  0  0  0  0
   -1.0310   -1.6796    2.2390 H   0  0  0  0  0  0  0  0  0  0  0  0
   -2.7259   -1.3351    1.7773 H   0  0  0  0  0  0  0  0  0  0  0  0
   -0.7612   -3.0061    0.1269 H   0  0  0  0  0  0  0  0  0  0  0  0
   -2.0921   -3.6453    1.1085 H   0  0  0  0  0  0  0  0  0  0  0  0
   -2.4403   -2.6401   -0.3066 H   0  0  0  0  0  0  0  0  0  0  0  0
  1  2  1  0  0  0  0
  2  3  1  0  0  0  0
  3  4  1  0  0  0  0
  4  5  2  0  0  0  0
  4  6  2  0  0  0  0
  6  7  1  0  0  0  0
  7  8  1  0  0  0  0
  4  9  1  0  0  0  0
  9 10  1  0  0  0  0
 10 11  1  0  0  0  0
 11 12  1  0  0  0  0
 12 13  2  0  0  0  0
 12 14  2  0  0  0  0
 14 15  1  0  0  0  0
 15 16  1  0  0  0  0
 12 17  1  0  0  0  0
 17 18  1  0  0  0  0
 18 19  1  0  0  0  0
  1 20  1  0  0  0  0
  1 21  1  0  0  0  0
  1 22  1  0  0  0  0
  2 23  1  0  0  0  0
  2 24  1  0  0  0  0
  7 25  1  0  0  0  0
  7 26  1  0  0  0  0
  8 27  1  0  0  0  0
  8 28  1  0  0  0  0
  8 29  1  0  0  0  0
 10 30  1  0  0  0  0
 10 31  1  0  0  0  0
 15 32  1  0  0  0  0
 15 33  1  0  0  0  0
 16 34  1  0  0  0  0
 16 35  1  0  0  0  0
 16 36  1  0  0  0  0
 18 37  1  0  0  0  0
 18 38  1  0  0  0  0
 19 39  1  0  0  0  0
 19 40  1  0  0  0  0
 19 41  1  0  0  0  0
M  END
