 xtb: 6.7.1 (edcfbbe)
          04032519423D

 20 20  0     0  0            999 V2000
    0.7953    1.3413   -1.0008 C   0  0  0  0  0  0  0  0  0  0  0  0
    1.4747    0.3006   -0.1095 C   0  0  0  0  0  0  0  0  0  0  0  0
    2.3755   -0.0481   -0.6351 H   0  0  0  0  0  0  0  0  0  0  0  0
    0.5713   -0.9368    0.1006 C   0  0  0  0  0  0  0  0  0  0  0  0
    0.4443   -1.0894    1.1841 H   0  0  0  0  0  0  0  0  0  0  0  0
   -0.8303   -0.7240   -0.4986 C   0  0  0  0  0  0  0  0  0  0  0  0
   -0.7805   -0.7948   -1.5895 H   0  0  0  0  0  0  0  0  0  0  0  0
   -1.3275    0.6686   -0.0925 C   0  0  0  0  0  0  0  0  0  0  0  0
   -2.3341    0.8457   -0.5115 H   0  0  0  0  0  0  0  0  0  0  0  0
   -0.5154    1.6993   -0.5844 O   0  0  0  0  0  0  0  0  0  0  0  0
   -1.3905    0.6798    1.3055 O   0  0  0  0  0  0  0  0  0  0  0  0
   -1.7215   -1.7253   -0.0847 O   0  0  0  0  0  0  0  0  0  0  0  0
    1.2117   -2.0491   -0.4778 O   0  0  0  0  0  0  0  0  0  0  0  0
    1.8213    0.9266    1.1014 O   0  0  0  0  0  0  0  0  0  0  0  0
    0.7631    0.9670   -2.0306 H   0  0  0  0  0  0  0  0  0  0  0  0
    1.3632    2.2717   -0.9644 H   0  0  0  0  0  0  0  0  0  0  0  0
   -1.5619    1.5810    1.6155 H   0  0  0  0  0  0  0  0  0  0  0  0
   -1.9511   -1.5706    0.8452 H   0  0  0  0  0  0  0  0  0  0  0  0
    0.6002   -2.8009   -0.4701 H   0  0  0  0  0  0  0  0  0  0  0  0
    2.3731    0.3354    1.6321 H   0  0  0  0  0  0  0  0  0  0  0  0
  1  2  1  0  0  0  0
  2  3  1  0  0  0  0
  2  4  1  0  0  0  0
  4  5  1  0  0  0  0
  4  6  1  0  0  0  0
  6  7  1  0  0  0  0
  6  8  1  0  0  0  0
  8  9  1  0  0  0  0
  1 10  1  0  0  0  0
  8 10  1  0  0  0  0
  8 11  1  0  0  0  0
  6 12  1  0  0  0  0
  4 13  1  0  0  0  0
  2 14  1  0  0  0  0
  1 15  1  0  0  0  0
  1 16  1  0  0  0  0
 11 17  1  0  0  0  0
 12 18  1  0  0  0  0
 13 19  1  0  0  0  0
 14 20  1  0  0  0  0
M  END
