 xtb: 6.7.1 (edcfbbe)
          04092505203D

 41 40  0     0  0            999 V2000
    4.4064   -1.6819   -0.7902 C   0  0  0  0  0  0  0  0  0  0  0  0
    4.6287   -0.1839   -0.7569 C   0  0  0  0  0  0  0  0  0  0  0  0
    3.5988    0.5136   -0.0340 O   0  0  0  0  0  0  0  0  0  0  0  0
    2.0859    0.5703   -0.5304 P   0  0  0  0  0  0  0  0  0  0  0  0
    1.8716    0.6884   -2.4727 S   0  0  0  0  0  0  0  0  0  0  0  0
    1.5597    1.8432    0.2385 O   0  0  0  0  0  0  0  0  0  0  0  0
    2.0420    2.3181    1.5182 C   0  0  0  0  0  0  0  0  0  0  0  0
    1.7273    1.3542    2.6422 C   0  0  0  0  0  0  0  0  0  0  0  0
    1.2139   -1.1515    0.3751 S   0  0  0  0  0  0  0  0  0  0  0  0
    0.1277   -1.7320   -0.9646 C   0  0  0  0  0  0  0  0  0  0  0  0
   -1.5648   -2.0171   -0.4103 S   0  0  0  0  0  0  0  0  0  0  0  0
   -2.0171   -0.0248    0.1891 P   0  0  0  0  0  0  0  0  0  0  0  0
   -1.3570    1.4068   -0.9759 S   0  0  0  0  0  0  0  0  0  0  0  0
   -1.4323    0.1600    1.6419 O   0  0  0  0  0  0  0  0  0  0  0  0
   -1.7572   -0.7304    2.7427 C   0  0  0  0  0  0  0  0  0  0  0  0
   -2.7514   -0.0695    3.6746 C   0  0  0  0  0  0  0  0  0  0  0  0
   -3.5775   -0.0981    0.4749 O   0  0  0  0  0  0  0  0  0  0  0  0
   -4.5626   -0.6452   -0.4216 C   0  0  0  0  0  0  0  0  0  0  0  0
   -4.5166   -0.0176   -1.7986 C   0  0  0  0  0  0  0  0  0  0  0  0
    4.2455   -2.0664    0.2137 H   0  0  0  0  0  0  0  0  0  0  0  0
    3.5365   -1.9126   -1.4033 H   0  0  0  0  0  0  0  0  0  0  0  0
    5.2778   -2.1602   -1.2256 H   0  0  0  0  0  0  0  0  0  0  0  0
    4.6668    0.2194   -1.7735 H   0  0  0  0  0  0  0  0  0  0  0  0
    5.5409    0.0764   -0.2180 H   0  0  0  0  0  0  0  0  0  0  0  0
    3.1164    2.4942    1.4359 H   0  0  0  0  0  0  0  0  0  0  0  0
    1.5156    3.2661    1.6416 H   0  0  0  0  0  0  0  0  0  0  0  0
    2.2692    0.4201    2.5005 H   0  0  0  0  0  0  0  0  0  0  0  0
    2.0234    1.7997    3.5867 H   0  0  0  0  0  0  0  0  0  0  0  0
    0.6604    1.1458    2.6591 H   0  0  0  0  0  0  0  0  0  0  0  0
    0.4906   -2.6940   -1.3182 H   0  0  0  0  0  0  0  0  0  0  0  0
    0.1413   -0.9861   -1.7649 H   0  0  0  0  0  0  0  0  0  0  0  0
   -2.1526   -1.6661    2.3386 H   0  0  0  0  0  0  0  0  0  0  0  0
   -0.8038   -0.9230    3.2390 H   0  0  0  0  0  0  0  0  0  0  0  0
   -3.6807    0.1327    3.1485 H   0  0  0  0  0  0  0  0  0  0  0  0
   -2.9478   -0.7325    4.5112 H   0  0  0  0  0  0  0  0  0  0  0  0
   -2.3504    0.8693    4.0466 H   0  0  0  0  0  0  0  0  0  0  0  0
   -4.4036   -1.7252   -0.4837 H   0  0  0  0  0  0  0  0  0  0  0  0
   -5.5096   -0.4361    0.0791 H   0  0  0  0  0  0  0  0  0  0  0  0
   -3.5678   -0.2433   -2.2840 H   0  0  0  0  0  0  0  0  0  0  0  0
   -5.3263   -0.4123   -2.4038 H   0  0  0  0  0  0  0  0  0  0  0  0
   -4.6124    1.0635   -1.7271 H   0  0  0  0  0  0  0  0  0  0  0  0
  1  2  1  0  0  0  0
  2  3  1  0  0  0  0
  3  4  2  0  0  0  0
  4  5  2  0  0  0  0
  4  6  2  0  0  0  0
  6  7  1  0  0  0  0
  7  8  1  0  0  0  0
  4  9  1  0  0  0  0
  9 10  1  0  0  0  0
 10 11  1  0  0  0  0
 11 12  1  0  0  0  0
 12 13  2  0  0  0  0
 12 14  2  0  0  0  0
 14 15  1  0  0  0  0
 15 16  1  0  0  0  0
 12 17  2  0  0  0  0
 17 18  1  0  0  0  0
 18 19  1  0  0  0  0
  1 20  1  0  0  0  0
  1 21  1  0  0  0  0
  1 22  1  0  0  0  0
  2 23  1  0  0  0  0
  2 24  1  0  0  0  0
  7 25  1  0  0  0  0
  7 26  1  0  0  0  0
  8 27  1  0  0  0  0
  8 28  1  0  0  0  0
  8 29  1  0  0  0  0
 10 30  1  0  0  0  0
 10 31  1  0  0  0  0
 15 32  1  0  0  0  0
 15 33  1  0  0  0  0
 16 34  1  0  0  0  0
 16 35  1  0  0  0  0
 16 36  1  0  0  0  0
 18 37  1  0  0  0  0
 18 38  1  0  0  0  0
 19 39  1  0  0  0  0
 19 40  1  0  0  0  0
 19 41  1  0  0  0  0
M  END
