 xtb: 6.7.1 (edcfbbe)
          04092507313D

 38 37  0     0  0            999 V2000
    3.0183   -2.8256    1.3525 C   0  0  0  0  0  0  0  0  0  0  0  0
    3.1032   -1.3116    1.2620 C   0  0  0  0  0  0  0  0  0  0  0  0
    2.7772   -0.8826   -0.0755 O   0  0  0  0  0  0  0  0  0  0  0  0
    1.6455   -0.2837   -0.3174 C   0  0  0  0  0  0  0  0  0  0  0  0
    0.8190    0.0296    0.5295 O   0  0  0  0  0  0  0  0  0  0  0  0
    1.4459    0.0433   -1.7761 C   0  0  0  0  0  0  0  0  0  0  0  0
    0.2382    0.9618   -1.9001 C   0  0  0  0  0  0  0  0  0  0  0  0
    0.1875    1.4068   -2.8971 H   0  0  0  0  0  0  0  0  0  0  0  0
    0.2760    2.0778   -0.8633 C   0  0  0  0  0  0  0  0  0  0  0  0
   -0.6910    2.4849   -0.2642 O   0  0  0  0  0  0  0  0  0  0  0  0
    1.4959    2.5691   -0.7630 O   0  0  0  0  0  0  0  0  0  0  0  0
    1.7534    3.6099    0.2025 C   0  0  0  0  0  0  0  0  0  0  0  0
    2.4946    3.0339    1.3981 C   0  0  0  0  0  0  0  0  0  0  0  0
   -1.3590    0.0858   -1.7763 S   0  0  0  0  0  0  0  0  0  0  0  0
   -1.6256   -0.7825    0.1408 P   0  0  0  0  0  0  0  0  0  0  0  0
   -0.6901   -2.4270    0.6873 S   0  0  0  0  0  0  0  0  0  0  0  0
   -1.8715    0.3416    1.2275 O   0  0  0  0  0  0  0  0  0  0  0  0
   -1.1787    0.4722    2.4649 C   0  0  0  0  0  0  0  0  0  0  0  0
   -3.1846   -1.1116   -0.0679 O   0  0  0  0  0  0  0  0  0  0  0  0
   -3.6248   -2.1664   -0.9260 C   0  0  0  0  0  0  0  0  0  0  0  0
    3.6597   -3.2798    0.6033 H   0  0  0  0  0  0  0  0  0  0  0  0
    3.3360   -3.1432    2.3399 H   0  0  0  0  0  0  0  0  0  0  0  0
    1.9938   -3.1551    1.1885 H   0  0  0  0  0  0  0  0  0  0  0  0
    4.1227   -0.9618    1.4329 H   0  0  0  0  0  0  0  0  0  0  0  0
    2.4149   -0.8355    1.9650 H   0  0  0  0  0  0  0  0  0  0  0  0
    1.2862   -0.8814   -2.3338 H   0  0  0  0  0  0  0  0  0  0  0  0
    2.3454    0.5275   -2.1573 H   0  0  0  0  0  0  0  0  0  0  0  0
    2.3623    4.3447   -0.3258 H   0  0  0  0  0  0  0  0  0  0  0  0
    0.7989    4.0520    0.5011 H   0  0  0  0  0  0  0  0  0  0  0  0
    2.6690    3.8182    2.1269 H   0  0  0  0  0  0  0  0  0  0  0  0
    1.9017    2.2463    1.8602 H   0  0  0  0  0  0  0  0  0  0  0  0
    3.4467    2.6157    1.0835 H   0  0  0  0  0  0  0  0  0  0  0  0
   -1.9356    0.6601    3.2236 H   0  0  0  0  0  0  0  0  0  0  0  0
   -0.4922    1.3146    2.3905 H   0  0  0  0  0  0  0  0  0  0  0  0
   -0.6265   -0.4415    2.6935 H   0  0  0  0  0  0  0  0  0  0  0  0
   -3.0238   -3.0626   -0.7561 H   0  0  0  0  0  0  0  0  0  0  0  0
   -3.5490   -1.8591   -1.9689 H   0  0  0  0  0  0  0  0  0  0  0  0
   -4.6616   -2.3505   -0.6555 H   0  0  0  0  0  0  0  0  0  0  0  0
  1  2  1  0  0  0  0
  2  3  1  0  0  0  0
  3  4  4  0  0  0  0
  4  5  2  0  0  0  0
  4  6  1  0  0  0  0
  6  7  1  0  0  0  0
  7  8  1  0  0  0  0
  7  9  1  0  0  0  0
  9 10  2  0  0  0  0
  9 11  1  0  0  0  0
 11 12  1  0  0  0  0
 12 13  1  0  0  0  0
  7 14  1  0  0  0  0
 14 15  1  0  0  0  0
 15 16  2  0  0  0  0
 15 17  2  0  0  0  0
 17 18  1  0  0  0  0
 15 19  1  0  0  0  0
 19 20  1  0  0  0  0
  1 21  1  0  0  0  0
  1 22  1  0  0  0  0
  1 23  1  0  0  0  0
  2 24  1  0  0  0  0
  2 25  1  0  0  0  0
  6 26  1  0  0  0  0
  6 27  1  0  0  0  0
 12 28  1  0  0  0  0
 12 29  1  0  0  0  0
 13 30  1  0  0  0  0
 13 31  1  0  0  0  0
 13 32  1  0  0  0  0
 18 33  1  0  0  0  0
 18 34  1  0  0  0  0
 18 35  1  0  0  0  0
 20 36  1  0  0  0  0
 20 37  1  0  0  0  0
 20 38  1  0  0  0  0
M  END
