 xtb: 6.7.1 (edcfbbe)
          04092505203D

 41 40  0     0  0            999 V2000
    3.3989    1.8169   -2.1349 C   0  0  0  0  0  0  0  0  0  0  0  0
    2.1676    0.9651   -1.9110 C   0  0  0  0  0  0  0  0  0  0  0  0
    1.6344    1.1872   -0.5823 O   0  0  0  0  0  0  0  0  0  0  0  0
    1.8931    0.2086    0.6282 P   0  0  0  0  0  0  0  0  0  0  0  0
    1.3021    1.0201    2.3059 S   0  0  0  0  0  0  0  0  0  0  0  0
    3.4524   -0.0638    0.4639 O   0  0  0  0  0  0  0  0  0  0  0  0
    4.1828   -1.1444    1.0734 C   0  0  0  0  0  0  0  0  0  0  0  0
    4.0231   -1.1908    2.5785 C   0  0  0  0  0  0  0  0  0  0  0  0
    1.0606   -1.6994    0.1390 S   0  0  0  0  0  0  0  0  0  0  0  0
   -0.2852   -1.7658    1.3479 C   0  0  0  0  0  0  0  0  0  0  0  0
   -1.9426   -1.7817    0.6088 S   0  0  0  0  0  0  0  0  0  0  0  0
   -1.8932   -0.0567   -0.6034 P   0  0  0  0  0  0  0  0  0  0  0  0
   -1.0974   -0.1325   -2.3995 S   0  0  0  0  0  0  0  0  0  0  0  0
   -1.2240    0.9658    0.4075 O   0  0  0  0  0  0  0  0  0  0  0  0
   -1.2260    2.3848    0.1314 C   0  0  0  0  0  0  0  0  0  0  0  0
   -2.3215    3.0713    0.9185 C   0  0  0  0  0  0  0  0  0  0  0  0
   -3.4083    0.4238   -0.6421 O   0  0  0  0  0  0  0  0  0  0  0  0
   -4.3231   -0.0399   -1.6500 C   0  0  0  0  0  0  0  0  0  0  0  0
   -4.6537   -1.5069   -1.4707 C   0  0  0  0  0  0  0  0  0  0  0  0
    4.1857    1.5303   -1.4421 H   0  0  0  0  0  0  0  0  0  0  0  0
    3.7448    1.6748   -3.1538 H   0  0  0  0  0  0  0  0  0  0  0  0
    3.1583    2.8649   -1.9793 H   0  0  0  0  0  0  0  0  0  0  0  0
    2.3849   -0.0989   -2.0366 H   0  0  0  0  0  0  0  0  0  0  0  0
    1.3573    1.2417   -2.5889 H   0  0  0  0  0  0  0  0  0  0  0  0
    3.8496   -2.0817    0.6190 H   0  0  0  0  0  0  0  0  0  0  0  0
    5.2174   -0.9436    0.7900 H   0  0  0  0  0  0  0  0  0  0  0  0
    4.2834   -0.2309    3.0179 H   0  0  0  0  0  0  0  0  0  0  0  0
    2.9918   -1.4199    2.8428 H   0  0  0  0  0  0  0  0  0  0  0  0
    4.6719   -1.9603    2.9841 H   0  0  0  0  0  0  0  0  0  0  0  0
   -0.1875   -0.9125    2.0257 H   0  0  0  0  0  0  0  0  0  0  0  0
   -0.2084   -2.7095    1.8832 H   0  0  0  0  0  0  0  0  0  0  0  0
   -0.2371    2.7328    0.4391 H   0  0  0  0  0  0  0  0  0  0  0  0
   -1.3415    2.5345   -0.9469 H   0  0  0  0  0  0  0  0  0  0  0  0
   -2.2742    4.1394    0.7316 H   0  0  0  0  0  0  0  0  0  0  0  0
   -3.2956    2.6929    0.6198 H   0  0  0  0  0  0  0  0  0  0  0  0
   -2.1786    2.8852    1.9796 H   0  0  0  0  0  0  0  0  0  0  0  0
   -5.2019    0.5929   -1.5214 H   0  0  0  0  0  0  0  0  0  0  0  0
   -3.8747    0.1381   -2.6331 H   0  0  0  0  0  0  0  0  0  0  0  0
   -5.0224   -1.6920   -0.4652 H   0  0  0  0  0  0  0  0  0  0  0  0
   -5.4082   -1.7990   -2.1939 H   0  0  0  0  0  0  0  0  0  0  0  0
   -3.7586   -2.1088   -1.6295 H   0  0  0  0  0  0  0  0  0  0  0  0
  1  2  1  0  0  0  0
  2  3  1  0  0  0  0
  3  4  2  0  0  0  0
  4  5  2  0  0  0  0
  4  6  2  0  0  0  0
  6  7  1  0  0  0  0
  7  8  1  0  0  0  0
  4  9  1  0  0  0  0
  9 10  1  0  0  0  0
 10 11  1  0  0  0  0
 11 12  1  0  0  0  0
 12 13  2  0  0  0  0
 12 14  1  0  0  0  0
 14 15  1  0  0  0  0
 15 16  1  0  0  0  0
 12 17  2  0  0  0  0
 17 18  1  0  0  0  0
 18 19  1  0  0  0  0
  1 20  1  0  0  0  0
  1 21  1  0  0  0  0
  1 22  1  0  0  0  0
  2 23  1  0  0  0  0
  2 24  1  0  0  0  0
  7 25  1  0  0  0  0
  7 26  1  0  0  0  0
  8 27  1  0  0  0  0
  8 28  1  0  0  0  0
  8 29  1  0  0  0  0
 10 30  1  0  0  0  0
 10 31  1  0  0  0  0
 15 32  1  0  0  0  0
 15 33  1  0  0  0  0
 16 34  1  0  0  0  0
 16 35  1  0  0  0  0
 16 36  1  0  0  0  0
 18 37  1  0  0  0  0
 18 38  1  0  0  0  0
 19 39  1  0  0  0  0
 19 40  1  0  0  0  0
 19 41  1  0  0  0  0
M  END
