 xtb: 6.7.1 (edcfbbe)
          04092505213D

 41 40  0     0  0            999 V2000
    3.7256   -1.2645   -2.6567 C   0  0  0  0  0  0  0  0  0  0  0  0
    4.0551    0.0186   -1.9216 C   0  0  0  0  0  0  0  0  0  0  0  0
    3.6463   -0.0321   -0.5451 O   0  0  0  0  0  0  0  0  0  0  0  0
    2.1186   -0.0507   -0.1082 P   0  0  0  0  0  0  0  0  0  0  0  0
    0.9805    1.1276   -1.1945 S   0  0  0  0  0  0  0  0  0  0  0  0
    2.1967    0.2699    1.4394 O   0  0  0  0  0  0  0  0  0  0  0  0
    2.1756    1.6120    1.9637 C   0  0  0  0  0  0  0  0  0  0  0  0
    3.4030    2.3984    1.5577 C   0  0  0  0  0  0  0  0  0  0  0  0
    1.7132   -2.1156    0.0157 S   0  0  0  0  0  0  0  0  0  0  0  0
    0.0594   -2.1109    0.7543 C   0  0  0  0  0  0  0  0  0  0  0  0
   -1.2998   -1.9280   -0.4560 S   0  0  0  0  0  0  0  0  0  0  0  0
   -2.1206   -0.0857    0.1417 P   0  0  0  0  0  0  0  0  0  0  0  0
   -1.2875    0.7993    1.6870 S   0  0  0  0  0  0  0  0  0  0  0  0
   -3.6747   -0.3952    0.3412 O   0  0  0  0  0  0  0  0  0  0  0  0
   -4.1836   -1.0870    1.4986 C   0  0  0  0  0  0  0  0  0  0  0  0
   -4.7426   -0.1041    2.5093 C   0  0  0  0  0  0  0  0  0  0  0  0
   -2.1741    0.6949   -1.2241 O   0  0  0  0  0  0  0  0  0  0  0  0
   -2.5661    2.0862   -1.2896 C   0  0  0  0  0  0  0  0  0  0  0  0
   -2.1336    2.6232   -2.6369 C   0  0  0  0  0  0  0  0  0  0  0  0
    4.1310   -2.1203   -2.1228 H   0  0  0  0  0  0  0  0  0  0  0  0
    2.6448   -1.3815   -2.7330 H   0  0  0  0  0  0  0  0  0  0  0  0
    4.1468   -1.2269   -3.6562 H   0  0  0  0  0  0  0  0  0  0  0  0
    3.5620    0.8723   -2.3987 H   0  0  0  0  0  0  0  0  0  0  0  0
    5.1309    0.1906   -1.8701 H   0  0  0  0  0  0  0  0  0  0  0  0
    1.2608    2.1052    1.6194 H   0  0  0  0  0  0  0  0  0  0  0  0
    2.1202    1.4657    3.0433 H   0  0  0  0  0  0  0  0  0  0  0  0
    3.3974    3.3581    2.0649 H   0  0  0  0  0  0  0  0  0  0  0  0
    4.3031    1.8504    1.8236 H   0  0  0  0  0  0  0  0  0  0  0  0
    3.3962    2.5663    0.4813 H   0  0  0  0  0  0  0  0  0  0  0  0
   -0.0122   -1.3060    1.4912 H   0  0  0  0  0  0  0  0  0  0  0  0
   -0.0545   -3.0870    1.2177 H   0  0  0  0  0  0  0  0  0  0  0  0
   -4.9624   -1.7454    1.1094 H   0  0  0  0  0  0  0  0  0  0  0  0
   -3.3847   -1.6898    1.9401 H   0  0  0  0  0  0  0  0  0  0  0  0
   -5.1698   -0.6527    3.3424 H   0  0  0  0  0  0  0  0  0  0  0  0
   -3.9520    0.5450    2.8793 H   0  0  0  0  0  0  0  0  0  0  0  0
   -5.5125    0.5081    2.0483 H   0  0  0  0  0  0  0  0  0  0  0  0
   -3.6500    2.1380   -1.1595 H   0  0  0  0  0  0  0  0  0  0  0  0
   -2.0762    2.6238   -0.4705 H   0  0  0  0  0  0  0  0  0  0  0  0
   -1.0539    2.5354   -2.7345 H   0  0  0  0  0  0  0  0  0  0  0  0
   -2.6052    2.0536   -3.4319 H   0  0  0  0  0  0  0  0  0  0  0  0
   -2.4201    3.6667   -2.7147 H   0  0  0  0  0  0  0  0  0  0  0  0
  1  2  1  0  0  0  0
  2  3  1  0  0  0  0
  3  4  2  0  0  0  0
  4  5  2  0  0  0  0
  4  6  2  0  0  0  0
  6  7  1  0  0  0  0
  7  8  1  0  0  0  0
  4  9  1  0  0  0  0
  9 10  1  0  0  0  0
 10 11  1  0  0  0  0
 11 12  1  0  0  0  0
 12 13  2  0  0  0  0
 12 14  2  0  0  0  0
 14 15  1  0  0  0  0
 15 16  1  0  0  0  0
 12 17  2  0  0  0  0
 17 18  1  0  0  0  0
 18 19  1  0  0  0  0
  1 20  1  0  0  0  0
  1 21  1  0  0  0  0
  1 22  1  0  0  0  0
  2 23  1  0  0  0  0
  2 24  1  0  0  0  0
  7 25  1  0  0  0  0
  7 26  1  0  0  0  0
  8 27  1  0  0  0  0
  8 28  1  0  0  0  0
  8 29  1  0  0  0  0
 10 30  1  0  0  0  0
 10 31  1  0  0  0  0
 15 32  1  0  0  0  0
 15 33  1  0  0  0  0
 16 34  1  0  0  0  0
 16 35  1  0  0  0  0
 16 36  1  0  0  0  0
 18 37  1  0  0  0  0
 18 38  1  0  0  0  0
 19 39  1  0  0  0  0
 19 40  1  0  0  0  0
 19 41  1  0  0  0  0
M  END
