 xtb: 6.7.1 (edcfbbe)
          04092505213D

 41 40  0     0  0            999 V2000
    1.9365    0.0516   -2.7944 C   0  0  0  0  0  0  0  0  0  0  0  0
    2.3103   -1.1281   -1.9193 C   0  0  0  0  0  0  0  0  0  0  0  0
    1.4768   -1.1644   -0.7371 O   0  0  0  0  0  0  0  0  0  0  0  0
    2.0220   -0.7617    0.6976 P   0  0  0  0  0  0  0  0  0  0  0  0
    3.3017    0.7264    0.7802 S   0  0  0  0  0  0  0  0  0  0  0  0
    2.5728   -2.1689    1.1951 O   0  0  0  0  0  0  0  0  0  0  0  0
    3.2568   -2.3269    2.4569 C   0  0  0  0  0  0  0  0  0  0  0  0
    4.7596   -2.3187    2.2552 C   0  0  0  0  0  0  0  0  0  0  0  0
    0.2274   -0.5499    1.7745 S   0  0  0  0  0  0  0  0  0  0  0  0
   -0.0105    1.2299    1.4986 C   0  0  0  0  0  0  0  0  0  0  0  0
   -0.0147    1.7042   -0.2561 S   0  0  0  0  0  0  0  0  0  0  0  0
   -1.9567    1.0731   -0.7946 P   0  0  0  0  0  0  0  0  0  0  0  0
   -2.3808    1.1759   -2.7026 S   0  0  0  0  0  0  0  0  0  0  0  0
   -2.7907    1.9944    0.1894 O   0  0  0  0  0  0  0  0  0  0  0  0
   -4.1884    2.2764   -0.0360 C   0  0  0  0  0  0  0  0  0  0  0  0
   -5.0467    1.0367    0.1014 C   0  0  0  0  0  0  0  0  0  0  0  0
   -2.1599   -0.3632   -0.1397 O   0  0  0  0  0  0  0  0  0  0  0  0
   -1.9270   -1.5973   -0.8397 C   0  0  0  0  0  0  0  0  0  0  0  0
   -2.7305   -2.6778   -0.1449 C   0  0  0  0  0  0  0  0  0  0  0  0
    0.8748    0.0295   -3.0315 H   0  0  0  0  0  0  0  0  0  0  0  0
    2.1556    0.9867   -2.2827 H   0  0  0  0  0  0  0  0  0  0  0  0
    2.5075    0.0082   -3.7161 H   0  0  0  0  0  0  0  0  0  0  0  0
    3.3594   -1.0695   -1.6171 H   0  0  0  0  0  0  0  0  0  0  0  0
    2.1253   -2.0769   -2.4255 H   0  0  0  0  0  0  0  0  0  0  0  0
    2.9496   -1.5283    3.1375 H   0  0  0  0  0  0  0  0  0  0  0  0
    2.9104   -3.2878    2.8413 H   0  0  0  0  0  0  0  0  0  0  0  0
    5.0815   -1.3526    1.8724 H   0  0  0  0  0  0  0  0  0  0  0  0
    5.2489   -2.5033    3.2059 H   0  0  0  0  0  0  0  0  0  0  0  0
    5.0457   -3.0911    1.5469 H   0  0  0  0  0  0  0  0  0  0  0  0
    0.8222    1.7749    1.9412 H   0  0  0  0  0  0  0  0  0  0  0  0
   -0.9564    1.5008    1.9592 H   0  0  0  0  0  0  0  0  0  0  0  0
   -4.4267    3.0234    0.7224 H   0  0  0  0  0  0  0  0  0  0  0  0
   -4.2947    2.7116   -1.0344 H   0  0  0  0  0  0  0  0  0  0  0  0
   -4.8580    0.5512    1.0553 H   0  0  0  0  0  0  0  0  0  0  0  0
   -6.0937    1.3160    0.0374 H   0  0  0  0  0  0  0  0  0  0  0  0
   -4.8176    0.3396   -0.7035 H   0  0  0  0  0  0  0  0  0  0  0  0
   -2.2312   -1.4688   -1.8842 H   0  0  0  0  0  0  0  0  0  0  0  0
   -0.8570   -1.8198   -0.8051 H   0  0  0  0  0  0  0  0  0  0  0  0
   -3.7909   -2.4460   -0.1883 H   0  0  0  0  0  0  0  0  0  0  0  0
   -2.5505   -3.6269   -0.6388 H   0  0  0  0  0  0  0  0  0  0  0  0
   -2.4250   -2.7483    0.8955 H   0  0  0  0  0  0  0  0  0  0  0  0
  1  2  1  0  0  0  0
  2  3  1  0  0  0  0
  3  4  2  0  0  0  0
  4  5  2  0  0  0  0
  4  6  2  0  0  0  0
  6  7  1  0  0  0  0
  7  8  1  0  0  0  0
  4  9  1  0  0  0  0
  9 10  1  0  0  0  0
 10 11  1  0  0  0  0
 11 12  1  0  0  0  0
 12 13  2  0  0  0  0
 12 14  2  0  0  0  0
 14 15  1  0  0  0  0
 15 16  1  0  0  0  0
 12 17  2  0  0  0  0
 17 18  1  0  0  0  0
 18 19  1  0  0  0  0
  1 20  1  0  0  0  0
  1 21  1  0  0  0  0
  1 22  1  0  0  0  0
  2 23  1  0  0  0  0
  2 24  1  0  0  0  0
  7 25  1  0  0  0  0
  7 26  1  0  0  0  0
  8 27  1  0  0  0  0
  8 28  1  0  0  0  0
  8 29  1  0  0  0  0
 10 30  1  0  0  0  0
 10 31  1  0  0  0  0
 15 32  1  0  0  0  0
 15 33  1  0  0  0  0
 16 34  1  0  0  0  0
 16 35  1  0  0  0  0
 16 36  1  0  0  0  0
 18 37  1  0  0  0  0
 18 38  1  0  0  0  0
 19 39  1  0  0  0  0
 19 40  1  0  0  0  0
 19 41  1  0  0  0  0
M  END
