 xtb: 6.7.1 (edcfbbe)
          04092505203D

 41 40  0     0  0            999 V2000
    4.6508   -0.8277   -2.0860 C   0  0  0  0  0  0  0  0  0  0  0  0
    3.3699   -1.6190   -1.9269 C   0  0  0  0  0  0  0  0  0  0  0  0
    2.7781   -1.4172   -0.6266 O   0  0  0  0  0  0  0  0  0  0  0  0
    2.0991   -0.0483   -0.2134 P   0  0  0  0  0  0  0  0  0  0  0  0
    1.2601    0.9414   -1.6901 S   0  0  0  0  0  0  0  0  0  0  0  0
    3.2893    0.7458    0.4794 O   0  0  0  0  0  0  0  0  0  0  0  0
    3.2286    2.1534    0.7563 C   0  0  0  0  0  0  0  0  0  0  0  0
    2.2882    2.4591    1.9043 C   0  0  0  0  0  0  0  0  0  0  0  0
    1.0174   -0.7737    1.4566 S   0  0  0  0  0  0  0  0  0  0  0  0
    0.0975   -2.1241    0.6652 C   0  0  0  0  0  0  0  0  0  0  0  0
   -0.9568   -1.5981   -0.7184 S   0  0  0  0  0  0  0  0  0  0  0  0
   -2.0945   -0.0941    0.2468 P   0  0  0  0  0  0  0  0  0  0  0  0
   -1.3756    1.6814    0.6883 S   0  0  0  0  0  0  0  0  0  0  0  0
   -2.5723   -0.9542    1.4860 O   0  0  0  0  0  0  0  0  0  0  0  0
   -3.0745   -0.3457    2.6943 C   0  0  0  0  0  0  0  0  0  0  0  0
   -4.4388    0.2746    2.4804 C   0  0  0  0  0  0  0  0  0  0  0  0
   -3.3958   -0.0269   -0.6650 O   0  0  0  0  0  0  0  0  0  0  0  0
   -3.5217    0.8922   -1.7611 C   0  0  0  0  0  0  0  0  0  0  0  0
   -2.5929    0.5353   -2.9038 C   0  0  0  0  0  0  0  0  0  0  0  0
    4.4288    0.2386   -2.0821 H   0  0  0  0  0  0  0  0  0  0  0  0
    5.3319   -1.0473   -1.2681 H   0  0  0  0  0  0  0  0  0  0  0  0
    5.1201   -1.0872   -3.0297 H   0  0  0  0  0  0  0  0  0  0  0  0
    3.5496   -2.6940   -1.9690 H   0  0  0  0  0  0  0  0  0  0  0  0
    2.6386   -1.3307   -2.6890 H   0  0  0  0  0  0  0  0  0  0  0  0
    4.2587    2.4199    0.9968 H   0  0  0  0  0  0  0  0  0  0  0  0
    2.9089    2.6754   -0.1521 H   0  0  0  0  0  0  0  0  0  0  0  0
    2.5451    1.8587    2.7734 H   0  0  0  0  0  0  0  0  0  0  0  0
    2.3555    3.5121    2.1577 H   0  0  0  0  0  0  0  0  0  0  0  0
    1.2597    2.2373    1.6170 H   0  0  0  0  0  0  0  0  0  0  0  0
   -0.5189   -2.5654    1.4450 H   0  0  0  0  0  0  0  0  0  0  0  0
    0.7947   -2.8508    0.2542 H   0  0  0  0  0  0  0  0  0  0  0  0
   -3.1101   -1.1700    3.4075 H   0  0  0  0  0  0  0  0  0  0  0  0
   -2.3537    0.4076    3.0282 H   0  0  0  0  0  0  0  0  0  0  0  0
   -4.8242    0.6340    3.4293 H   0  0  0  0  0  0  0  0  0  0  0  0
   -4.3580    1.1134    1.7902 H   0  0  0  0  0  0  0  0  0  0  0  0
   -5.1238   -0.4585    2.0629 H   0  0  0  0  0  0  0  0  0  0  0  0
   -4.5700    0.8136   -2.0523 H   0  0  0  0  0  0  0  0  0  0  0  0
   -3.3090    1.9026   -1.3956 H   0  0  0  0  0  0  0  0  0  0  0  0
   -2.7393   -0.5000   -3.2016 H   0  0  0  0  0  0  0  0  0  0  0  0
   -2.7889    1.1873   -3.7488 H   0  0  0  0  0  0  0  0  0  0  0  0
   -1.5537    0.6670   -2.5980 H   0  0  0  0  0  0  0  0  0  0  0  0
  1  2  1  0  0  0  0
  2  3  1  0  0  0  0
  3  4  2  0  0  0  0
  4  5  2  0  0  0  0
  4  6  2  0  0  0  0
  6  7  1  0  0  0  0
  7  8  1  0  0  0  0
  4  9  1  0  0  0  0
  9 10  1  0  0  0  0
 10 11  1  0  0  0  0
 11 12  1  0  0  0  0
 12 13  2  0  0  0  0
 12 14  2  0  0  0  0
 14 15  1  0  0  0  0
 15 16  1  0  0  0  0
 12 17  2  0  0  0  0
 17 18  1  0  0  0  0
 18 19  1  0  0  0  0
  1 20  1  0  0  0  0
  1 21  1  0  0  0  0
  1 22  1  0  0  0  0
  2 23  1  0  0  0  0
  2 24  1  0  0  0  0
  7 25  1  0  0  0  0
  7 26  1  0  0  0  0
  8 27  1  0  0  0  0
  8 28  1  0  0  0  0
  8 29  1  0  0  0  0
 10 30  1  0  0  0  0
 10 31  1  0  0  0  0
 15 32  1  0  0  0  0
 15 33  1  0  0  0  0
 16 34  1  0  0  0  0
 16 35  1  0  0  0  0
 16 36  1  0  0  0  0
 18 37  1  0  0  0  0
 18 38  1  0  0  0  0
 19 39  1  0  0  0  0
 19 40  1  0  0  0  0
 19 41  1  0  0  0  0
M  END
