 xtb: 6.7.1 (edcfbbe)
          04092505213D

 41 40  0     0  0            999 V2000
    1.0896    0.8193    2.9409 C   0  0  0  0  0  0  0  0  0  0  0  0
    2.2576    1.0539    2.0044 C   0  0  0  0  0  0  0  0  0  0  0  0
    2.7859   -0.1802    1.4855 O   0  0  0  0  0  0  0  0  0  0  0  0
    2.1571   -1.0190    0.2888 P   0  0  0  0  0  0  0  0  0  0  0  0
    0.4514   -1.9270    0.5968 S   0  0  0  0  0  0  0  0  0  0  0  0
    3.2821   -2.0781    0.0048 O   0  0  0  0  0  0  0  0  0  0  0  0
    4.6578   -1.7244   -0.2921 C   0  0  0  0  0  0  0  0  0  0  0  0
    5.5150   -1.8104    0.9538 C   0  0  0  0  0  0  0  0  0  0  0  0
    2.2426    0.3295   -1.3765 S   0  0  0  0  0  0  0  0  0  0  0  0
    0.4851    0.4611   -1.7348 C   0  0  0  0  0  0  0  0  0  0  0  0
   -0.3863    1.4005   -0.4363 S   0  0  0  0  0  0  0  0  0  0  0  0
   -2.3455    0.6021   -0.7053 P   0  0  0  0  0  0  0  0  0  0  0  0
   -2.4653   -1.0381   -1.7668 S   0  0  0  0  0  0  0  0  0  0  0  0
   -3.1709    1.7596   -1.3836 O   0  0  0  0  0  0  0  0  0  0  0  0
   -3.0454    3.1817   -1.1328 C   0  0  0  0  0  0  0  0  0  0  0  0
   -3.1715    3.5377    0.3320 C   0  0  0  0  0  0  0  0  0  0  0  0
   -2.9588    0.5508    0.7583 O   0  0  0  0  0  0  0  0  0  0  0  0
   -2.8272   -0.5715    1.6501 C   0  0  0  0  0  0  0  0  0  0  0  0
   -4.0898   -1.4100    1.6206 C   0  0  0  0  0  0  0  0  0  0  0  0
    0.2518    0.3871    2.3977 H   0  0  0  0  0  0  0  0  0  0  0  0
    1.3756    0.1356    3.7355 H   0  0  0  0  0  0  0  0  0  0  0  0
    0.7813    1.7666    3.3706 H   0  0  0  0  0  0  0  0  0  0  0  0
    3.1035    1.4993    2.5311 H   0  0  0  0  0  0  0  0  0  0  0  0
    1.9628    1.6976    1.1693 H   0  0  0  0  0  0  0  0  0  0  0  0
    4.9694   -2.4547   -1.0409 H   0  0  0  0  0  0  0  0  0  0  0  0
    4.6797   -0.7207   -0.7254 H   0  0  0  0  0  0  0  0  0  0  0  0
    6.5467   -1.6016    0.6887 H   0  0  0  0  0  0  0  0  0  0  0  0
    5.1798   -1.0895    1.6941 H   0  0  0  0  0  0  0  0  0  0  0  0
    5.4487   -2.8069    1.3816 H   0  0  0  0  0  0  0  0  0  0  0  0
    0.0336   -0.5326   -1.7989 H   0  0  0  0  0  0  0  0  0  0  0  0
    0.4073    0.9905   -2.6814 H   0  0  0  0  0  0  0  0  0  0  0  0
   -2.0819    3.5122   -1.5294 H   0  0  0  0  0  0  0  0  0  0  0  0
   -3.8562    3.6080   -1.7252 H   0  0  0  0  0  0  0  0  0  0  0  0
   -2.3345    3.1232    0.8910 H   0  0  0  0  0  0  0  0  0  0  0  0
   -3.1649    4.6185    0.4349 H   0  0  0  0  0  0  0  0  0  0  0  0
   -4.0978    3.1415    0.7389 H   0  0  0  0  0  0  0  0  0  0  0  0
   -1.9594   -1.1742    1.3684 H   0  0  0  0  0  0  0  0  0  0  0  0
   -2.6637   -0.1320    2.6361 H   0  0  0  0  0  0  0  0  0  0  0  0
   -4.0000   -2.2160    2.3417 H   0  0  0  0  0  0  0  0  0  0  0  0
   -4.9530   -0.7972    1.8646 H   0  0  0  0  0  0  0  0  0  0  0  0
   -4.2285   -1.8371    0.6294 H   0  0  0  0  0  0  0  0  0  0  0  0
  1  2  1  0  0  0  0
  2  3  1  0  0  0  0
  3  4  2  0  0  0  0
  4  5  2  0  0  0  0
  4  6  2  0  0  0  0
  6  7  1  0  0  0  0
  7  8  1  0  0  0  0
  4  9  1  0  0  0  0
  9 10  1  0  0  0  0
 10 11  1  0  0  0  0
 11 12  1  0  0  0  0
 12 13  2  0  0  0  0
 12 14  2  0  0  0  0
 14 15  1  0  0  0  0
 15 16  1  0  0  0  0
 12 17  2  0  0  0  0
 17 18  1  0  0  0  0
 18 19  1  0  0  0  0
  1 20  1  0  0  0  0
  1 21  1  0  0  0  0
  1 22  1  0  0  0  0
  2 23  1  0  0  0  0
  2 24  1  0  0  0  0
  7 25  1  0  0  0  0
  7 26  1  0  0  0  0
  8 27  1  0  0  0  0
  8 28  1  0  0  0  0
  8 29  1  0  0  0  0
 10 30  1  0  0  0  0
 10 31  1  0  0  0  0
 15 32  1  0  0  0  0
 15 33  1  0  0  0  0
 16 34  1  0  0  0  0
 16 35  1  0  0  0  0
 16 36  1  0  0  0  0
 18 37  1  0  0  0  0
 18 38  1  0  0  0  0
 19 39  1  0  0  0  0
 19 40  1  0  0  0  0
 19 41  1  0  0  0  0
M  END
