 xtb: 6.7.1 (edcfbbe)
          04092507313D

 38 37  0     0  0            999 V2000
    5.0368   -0.5564   -1.2884 C   0  0  0  0  0  0  0  0  0  0  0  0
    4.2515   -1.8115   -0.9471 C   0  0  0  0  0  0  0  0  0  0  0  0
    2.9095   -1.6720   -1.4560 O   0  0  0  0  0  0  0  0  0  0  0  0
    1.8885   -1.7463   -0.6367 C   0  0  0  0  0  0  0  0  0  0  0  0
    1.9535   -2.0011    0.5479 O   0  0  0  0  0  0  0  0  0  0  0  0
    0.5902   -1.3958   -1.3414 C   0  0  0  0  0  0  0  0  0  0  0  0
    0.4488    0.1330   -1.2903 C   0  0  0  0  0  0  0  0  0  0  0  0
    1.0881    0.6164   -2.0297 H   0  0  0  0  0  0  0  0  0  0  0  0
    0.7796    0.6383    0.0972 C   0  0  0  0  0  0  0  0  0  0  0  0
   -0.0019    0.5053    1.0191 O   0  0  0  0  0  0  0  0  0  0  0  0
    1.9469    1.2136    0.1696 O   0  0  0  0  0  0  0  0  0  0  0  0
    2.3848    1.7225    1.4528 C   0  0  0  0  0  0  0  0  0  0  0  0
    3.2433    0.6965    2.1732 C   0  0  0  0  0  0  0  0  0  0  0  0
   -1.2587    0.6568   -1.6459 S   0  0  0  0  0  0  0  0  0  0  0  0
   -2.3125    0.5112    0.2138 P   0  0  0  0  0  0  0  0  0  0  0  0
   -2.3754    1.9517    1.5423 S   0  0  0  0  0  0  0  0  0  0  0  0
   -3.7749    0.5190   -0.4333 O   0  0  0  0  0  0  0  0  0  0  0  0
   -4.2828   -0.4760   -1.3398 C   0  0  0  0  0  0  0  0  0  0  0  0
   -2.2229   -1.0158    0.7080 O   0  0  0  0  0  0  0  0  0  0  0  0
   -1.6782   -1.4447    1.9554 C   0  0  0  0  0  0  0  0  0  0  0  0
    4.5592    0.3166   -0.8503 H   0  0  0  0  0  0  0  0  0  0  0  0
    6.0457   -0.6472   -0.8996 H   0  0  0  0  0  0  0  0  0  0  0  0
    5.0786   -0.4257   -2.3655 H   0  0  0  0  0  0  0  0  0  0  0  0
    4.1998   -1.9800    0.1321 H   0  0  0  0  0  0  0  0  0  0  0  0
    4.6769   -2.6894   -1.4374 H   0  0  0  0  0  0  0  0  0  0  0  0
   -0.2375   -1.8647   -0.8087 H   0  0  0  0  0  0  0  0  0  0  0  0
    0.6102   -1.7247   -2.3780 H   0  0  0  0  0  0  0  0  0  0  0  0
    2.9510    2.6222    1.2101 H   0  0  0  0  0  0  0  0  0  0  0  0
    1.4989    1.9774    2.0409 H   0  0  0  0  0  0  0  0  0  0  0  0
    3.4882    1.0704    3.1616 H   0  0  0  0  0  0  0  0  0  0  0  0
    2.6999   -0.2412    2.2752 H   0  0  0  0  0  0  0  0  0  0  0  0
    4.1619    0.5126    1.6234 H   0  0  0  0  0  0  0  0  0  0  0  0
   -5.3518   -0.2865   -1.3957 H   0  0  0  0  0  0  0  0  0  0  0  0
   -4.0903   -1.4736   -0.9492 H   0  0  0  0  0  0  0  0  0  0  0  0
   -3.8211   -0.3556   -2.3188 H   0  0  0  0  0  0  0  0  0  0  0  0
   -2.3171   -2.2548    2.3002 H   0  0  0  0  0  0  0  0  0  0  0  0
   -1.6824   -0.6231    2.6726 H   0  0  0  0  0  0  0  0  0  0  0  0
   -0.6553   -1.7940    1.8110 H   0  0  0  0  0  0  0  0  0  0  0  0
  1  2  1  0  0  0  0
  2  3  1  0  0  0  0
  3  4  4  0  0  0  0
  4  5  2  0  0  0  0
  4  6  1  0  0  0  0
  6  7  1  0  0  0  0
  7  8  1  0  0  0  0
  7  9  1  0  0  0  0
  9 10  2  0  0  0  0
  9 11  4  0  0  0  0
 11 12  1  0  0  0  0
 12 13  1  0  0  0  0
  7 14  1  0  0  0  0
 14 15  1  0  0  0  0
 15 16  2  0  0  0  0
 15 17  1  0  0  0  0
 17 18  1  0  0  0  0
 15 19  1  0  0  0  0
 19 20  1  0  0  0  0
  1 21  1  0  0  0  0
  1 22  1  0  0  0  0
  1 23  1  0  0  0  0
  2 24  1  0  0  0  0
  2 25  1  0  0  0  0
  6 26  1  0  0  0  0
  6 27  1  0  0  0  0
 12 28  1  0  0  0  0
 12 29  1  0  0  0  0
 13 30  1  0  0  0  0
 13 31  1  0  0  0  0
 13 32  1  0  0  0  0
 18 33  1  0  0  0  0
 18 34  1  0  0  0  0
 18 35  1  0  0  0  0
 20 36  1  0  0  0  0
 20 37  1  0  0  0  0
 20 38  1  0  0  0  0
M  END
