 xtb: 6.7.1 (edcfbbe)
          04032520323D

 10  9  0     0  0            999 V2000
   -1.2663    0.7024   -0.0026 C   0  0  0  0  0  0  0  0  0  0  0  0
    0.0000   -0.1032    0.0001 C   0  0  0  0  0  0  0  0  0  0  0  0
    0.0001   -1.3198   -0.0000 O   0  0  0  0  0  0  0  0  0  0  0  0
    1.2661    0.7026    0.0026 C   0  0  0  0  0  0  0  0  0  0  0  0
   -1.4012    1.1352    0.9866 H   0  0  0  0  0  0  0  0  0  0  0  0
   -1.1974    1.5149   -0.7193 H   0  0  0  0  0  0  0  0  0  0  0  0
   -2.1190    0.0679   -0.2275 H   0  0  0  0  0  0  0  0  0  0  0  0
    1.4018    1.1337   -0.9873 H   0  0  0  0  0  0  0  0  0  0  0  0
    2.1188    0.0686    0.2292 H   0  0  0  0  0  0  0  0  0  0  0  0
    1.1966    1.5164    0.7178 H   0  0  0  0  0  0  0  0  0  0  0  0
  1  2  1  0  0  0  0
  2  3  2  0  0  0  0
  2  4  1  0  0  0  0
  1  5  1  0  0  0  0
  1  6  1  0  0  0  0
  1  7  1  0  0  0  0
  4  8  1  0  0  0  0
  4  9  1  0  0  0  0
  4 10  1  0  0  0  0
M  END
