 xtb: 6.7.1 (edcfbbe)
          04092505213D

 41 40  0     0  0            999 V2000
    2.3995    0.3959   -2.6307 C   0  0  0  0  0  0  0  0  0  0  0  0
    1.6378    1.3655   -1.7534 C   0  0  0  0  0  0  0  0  0  0  0  0
    1.0744    0.7129   -0.5973 O   0  0  0  0  0  0  0  0  0  0  0  0
    2.0098    0.2258    0.5984 P   0  0  0  0  0  0  0  0  0  0  0  0
    3.5772    1.3499    0.9349 S   0  0  0  0  0  0  0  0  0  0  0  0
    2.3440   -1.2742    0.1762 O   0  0  0  0  0  0  0  0  0  0  0  0
    3.4507   -1.9989    0.7402 C   0  0  0  0  0  0  0  0  0  0  0  0
    3.1013   -2.5951    2.0893 C   0  0  0  0  0  0  0  0  0  0  0  0
    0.6654    0.1485    2.2065 S   0  0  0  0  0  0  0  0  0  0  0  0
   -0.4723   -1.2355    1.7807 C   0  0  0  0  0  0  0  0  0  0  0  0
   -0.6755   -1.5705    0.0212 S   0  0  0  0  0  0  0  0  0  0  0  0
   -1.8428    0.0772   -0.6140 P   0  0  0  0  0  0  0  0  0  0  0  0
   -1.7336    0.4610   -2.5336 S   0  0  0  0  0  0  0  0  0  0  0  0
   -1.4221    1.1890    0.4348 O   0  0  0  0  0  0  0  0  0  0  0  0
   -2.2785    2.2742    0.8506 C   0  0  0  0  0  0  0  0  0  0  0  0
   -2.5392    3.2544   -0.2737 C   0  0  0  0  0  0  0  0  0  0  0  0
   -3.3332   -0.2298   -0.1154 O   0  0  0  0  0  0  0  0  0  0  0  0
   -4.2769   -0.9383   -0.9309 C   0  0  0  0  0  0  0  0  0  0  0  0
   -3.9380   -2.4113   -1.0387 C   0  0  0  0  0  0  0  0  0  0  0  0
    2.7163    0.9072   -3.5341 H   0  0  0  0  0  0  0  0  0  0  0  0
    3.2770    0.0257   -2.1026 H   0  0  0  0  0  0  0  0  0  0  0  0
    1.7614   -0.4437   -2.8970 H   0  0  0  0  0  0  0  0  0  0  0  0
    0.7702    1.7764   -2.2734 H   0  0  0  0  0  0  0  0  0  0  0  0
    2.2869    2.1769   -1.4085 H   0  0  0  0  0  0  0  0  0  0  0  0
    3.6644   -2.7738    0.0027 H   0  0  0  0  0  0  0  0  0  0  0  0
    4.3050   -1.3184    0.8245 H   0  0  0  0  0  0  0  0  0  0  0  0
    2.2391   -3.2503    1.9975 H   0  0  0  0  0  0  0  0  0  0  0  0
    3.9475   -3.1691    2.4533 H   0  0  0  0  0  0  0  0  0  0  0  0
    2.8801   -1.8034    2.8038 H   0  0  0  0  0  0  0  0  0  0  0  0
   -1.4265   -0.9730    2.2310 H   0  0  0  0  0  0  0  0  0  0  0  0
   -0.0756   -2.1521    2.2104 H   0  0  0  0  0  0  0  0  0  0  0  0
   -3.2130    1.8557    1.2298 H   0  0  0  0  0  0  0  0  0  0  0  0
   -1.7191    2.7367    1.6665 H   0  0  0  0  0  0  0  0  0  0  0  0
   -3.1379    4.0796    0.0987 H   0  0  0  0  0  0  0  0  0  0  0  0
   -1.6002    3.6397   -0.6648 H   0  0  0  0  0  0  0  0  0  0  0  0
   -3.0742    2.7623   -1.0851 H   0  0  0  0  0  0  0  0  0  0  0  0
   -5.2335   -0.7792   -0.4311 H   0  0  0  0  0  0  0  0  0  0  0  0
   -4.2935   -0.4755   -1.9232 H   0  0  0  0  0  0  0  0  0  0  0  0
   -4.7211   -2.9193   -1.5923 H   0  0  0  0  0  0  0  0  0  0  0  0
   -2.9934   -2.5364   -1.5675 H   0  0  0  0  0  0  0  0  0  0  0  0
   -3.8478   -2.8549   -0.0508 H   0  0  0  0  0  0  0  0  0  0  0  0
  1  2  1  0  0  0  0
  2  3  1  0  0  0  0
  3  4  1  0  0  0  0
  4  5  2  0  0  0  0
  4  6  2  0  0  0  0
  6  7  1  0  0  0  0
  7  8  1  0  0  0  0
  4  9  1  0  0  0  0
  9 10  1  0  0  0  0
 10 11  1  0  0  0  0
 11 12  1  0  0  0  0
 12 13  2  0  0  0  0
 12 14  2  0  0  0  0
 14 15  1  0  0  0  0
 15 16  1  0  0  0  0
 12 17  1  0  0  0  0
 17 18  1  0  0  0  0
 18 19  1  0  0  0  0
  1 20  1  0  0  0  0
  1 21  1  0  0  0  0
  1 22  1  0  0  0  0
  2 23  1  0  0  0  0
  2 24  1  0  0  0  0
  7 25  1  0  0  0  0
  7 26  1  0  0  0  0
  8 27  1  0  0  0  0
  8 28  1  0  0  0  0
  8 29  1  0  0  0  0
 10 30  1  0  0  0  0
 10 31  1  0  0  0  0
 15 32  1  0  0  0  0
 15 33  1  0  0  0  0
 16 34  1  0  0  0  0
 16 35  1  0  0  0  0
 16 36  1  0  0  0  0
 18 37  1  0  0  0  0
 18 38  1  0  0  0  0
 19 39  1  0  0  0  0
 19 40  1  0  0  0  0
 19 41  1  0  0  0  0
M  END
