 xtb: 6.7.1 (edcfbbe)
          04092505203D

 41 40  0     0  0            999 V2000
    3.8611    1.3628   -1.9583 C   0  0  0  0  0  0  0  0  0  0  0  0
    2.4799    0.7780   -2.1604 C   0  0  0  0  0  0  0  0  0  0  0  0
    2.2605   -0.3769   -1.3295 O   0  0  0  0  0  0  0  0  0  0  0  0
    2.1154   -0.2840    0.2442 P   0  0  0  0  0  0  0  0  0  0  0  0
    1.1992    1.3105    0.9414 S   0  0  0  0  0  0  0  0  0  0  0  0
    3.6186   -0.4197    0.7412 O   0  0  0  0  0  0  0  0  0  0  0  0
    4.0202   -0.0951    2.0829 C   0  0  0  0  0  0  0  0  0  0  0  0
    3.4464   -1.0646    3.0959 C   0  0  0  0  0  0  0  0  0  0  0  0
    1.3400   -2.2022    0.6171 S   0  0  0  0  0  0  0  0  0  0  0  0
   -0.3040   -2.0676   -0.1349 C   0  0  0  0  0  0  0  0  0  0  0  0
   -1.5013   -1.1366    0.8686 S   0  0  0  0  0  0  0  0  0  0  0  0
   -1.9941    0.4377   -0.4893 P   0  0  0  0  0  0  0  0  0  0  0  0
   -1.0267    0.4576   -2.1893 S   0  0  0  0  0  0  0  0  0  0  0  0
   -1.8174    1.8078    0.2545 O   0  0  0  0  0  0  0  0  0  0  0  0
   -2.3304    2.0761    1.5826 C   0  0  0  0  0  0  0  0  0  0  0  0
   -3.5892    2.9141    1.5035 C   0  0  0  0  0  0  0  0  0  0  0  0
   -3.5844    0.3422   -0.5664 O   0  0  0  0  0  0  0  0  0  0  0  0
   -4.3424   -0.8488   -0.8407 C   0  0  0  0  0  0  0  0  0  0  0  0
   -4.0045   -1.4662   -2.1819 C   0  0  0  0  0  0  0  0  0  0  0  0
    4.6152    0.5904   -2.0835 H   0  0  0  0  0  0  0  0  0  0  0  0
    4.0246    2.1529   -2.6846 H   0  0  0  0  0  0  0  0  0  0  0  0
    3.9448    1.7798   -0.9555 H   0  0  0  0  0  0  0  0  0  0  0  0
    2.3354    0.4005   -3.1738 H   0  0  0  0  0  0  0  0  0  0  0  0
    1.7033    1.5185   -1.9408 H   0  0  0  0  0  0  0  0  0  0  0  0
    5.1094   -0.1419    2.0487 H   0  0  0  0  0  0  0  0  0  0  0  0
    3.6956    0.9273    2.3030 H   0  0  0  0  0  0  0  0  0  0  0  0
    3.6831   -2.0879    2.8156 H   0  0  0  0  0  0  0  0  0  0  0  0
    3.8620   -0.8510    4.0753 H   0  0  0  0  0  0  0  0  0  0  0  0
    2.3630   -0.9561    3.1400 H   0  0  0  0  0  0  0  0  0  0  0  0
   -0.6667   -3.0890   -0.2153 H   0  0  0  0  0  0  0  0  0  0  0  0
   -0.2223   -1.5890   -1.1156 H   0  0  0  0  0  0  0  0  0  0  0  0
   -2.5133    1.1262    2.0932 H   0  0  0  0  0  0  0  0  0  0  0  0
   -1.5186    2.6064    2.0855 H   0  0  0  0  0  0  0  0  0  0  0  0
   -3.3857    3.8385    0.9701 H   0  0  0  0  0  0  0  0  0  0  0  0
   -4.3700    2.3708    0.9779 H   0  0  0  0  0  0  0  0  0  0  0  0
   -3.9240    3.1453    2.5097 H   0  0  0  0  0  0  0  0  0  0  0  0
   -4.1669   -1.5611   -0.0293 H   0  0  0  0  0  0  0  0  0  0  0  0
   -5.3777   -0.5046   -0.8134 H   0  0  0  0  0  0  0  0  0  0  0  0
   -4.1158   -0.7315   -2.9758 H   0  0  0  0  0  0  0  0  0  0  0  0
   -2.9749   -1.8206   -2.1882 H   0  0  0  0  0  0  0  0  0  0  0  0
   -4.6691   -2.3032   -2.3701 H   0  0  0  0  0  0  0  0  0  0  0  0
  1  2  1  0  0  0  0
  2  3  1  0  0  0  0
  3  4  2  0  0  0  0
  4  5  2  0  0  0  0
  4  6  2  0  0  0  0
  6  7  1  0  0  0  0
  7  8  1  0  0  0  0
  4  9  1  0  0  0  0
  9 10  1  0  0  0  0
 10 11  1  0  0  0  0
 11 12  1  0  0  0  0
 12 13  2  0  0  0  0
 12 14  2  0  0  0  0
 14 15  1  0  0  0  0
 15 16  1  0  0  0  0
 12 17  2  0  0  0  0
 17 18  1  0  0  0  0
 18 19  1  0  0  0  0
  1 20  1  0  0  0  0
  1 21  1  0  0  0  0
  1 22  1  0  0  0  0
  2 23  1  0  0  0  0
  2 24  1  0  0  0  0
  7 25  1  0  0  0  0
  7 26  1  0  0  0  0
  8 27  1  0  0  0  0
  8 28  1  0  0  0  0
  8 29  1  0  0  0  0
 10 30  1  0  0  0  0
 10 31  1  0  0  0  0
 15 32  1  0  0  0  0
 15 33  1  0  0  0  0
 16 34  1  0  0  0  0
 16 35  1  0  0  0  0
 16 36  1  0  0  0  0
 18 37  1  0  0  0  0
 18 38  1  0  0  0  0
 19 39  1  0  0  0  0
 19 40  1  0  0  0  0
 19 41  1  0  0  0  0
M  END
