 xtb: 6.7.1 (edcfbbe)
          04092505213D

 41 40  0     0  0            999 V2000
    4.0799    1.6143    1.5184 C   0  0  0  0  0  0  0  0  0  0  0  0
    2.8729    2.0126    0.6969 C   0  0  0  0  0  0  0  0  0  0  0  0
    2.5266    0.9893   -0.2624 O   0  0  0  0  0  0  0  0  0  0  0  0
    1.8995   -0.3917    0.1722 P   0  0  0  0  0  0  0  0  0  0  0  0
    0.8661   -0.3996    1.8454 S   0  0  0  0  0  0  0  0  0  0  0  0
    3.1654   -1.3509    0.2384 O   0  0  0  0  0  0  0  0  0  0  0  0
    3.1142   -2.6845    0.7768 C   0  0  0  0  0  0  0  0  0  0  0  0
    4.5047   -3.0513    1.2553 C   0  0  0  0  0  0  0  0  0  0  0  0
    1.0440   -0.9954   -1.6654 S   0  0  0  0  0  0  0  0  0  0  0  0
    0.0492    0.4809   -2.0957 C   0  0  0  0  0  0  0  0  0  0  0  0
   -0.6811    1.3509   -0.6934 S   0  0  0  0  0  0  0  0  0  0  0  0
   -2.2844   -0.0079   -0.2958 P   0  0  0  0  0  0  0  0  0  0  0  0
   -1.8756   -1.9056   -0.0626 S   0  0  0  0  0  0  0  0  0  0  0  0
   -3.2762    0.1898   -1.5021 O   0  0  0  0  0  0  0  0  0  0  0  0
   -3.9174    1.4500   -1.8401 C   0  0  0  0  0  0  0  0  0  0  0  0
   -3.3121    2.0344   -3.1011 C   0  0  0  0  0  0  0  0  0  0  0  0
   -3.0659    0.6900    0.8961 O   0  0  0  0  0  0  0  0  0  0  0  0
   -2.6319    0.6756    2.2698 C   0  0  0  0  0  0  0  0  0  0  0  0
   -1.9122    1.9628    2.6181 C   0  0  0  0  0  0  0  0  0  0  0  0
    4.3650    2.4378    2.1654 H   0  0  0  0  0  0  0  0  0  0  0  0
    3.8345    0.7489    2.1328 H   0  0  0  0  0  0  0  0  0  0  0  0
    4.9105    1.3579    0.8664 H   0  0  0  0  0  0  0  0  0  0  0  0
    3.0673    2.8912    0.0811 H   0  0  0  0  0  0  0  0  0  0  0  0
    2.0065    2.1908    1.3414 H   0  0  0  0  0  0  0  0  0  0  0  0
    2.3878   -2.7065    1.5974 H   0  0  0  0  0  0  0  0  0  0  0  0
    2.7723   -3.3571   -0.0148 H   0  0  0  0  0  0  0  0  0  0  0  0
    5.2099   -2.9702    0.4333 H   0  0  0  0  0  0  0  0  0  0  0  0
    4.8147   -2.3842    2.0546 H   0  0  0  0  0  0  0  0  0  0  0  0
    4.4951   -4.0719    1.6237 H   0  0  0  0  0  0  0  0  0  0  0  0
   -0.7362    0.1228   -2.7601 H   0  0  0  0  0  0  0  0  0  0  0  0
    0.6984    1.1961   -2.5954 H   0  0  0  0  0  0  0  0  0  0  0  0
   -4.9660    1.1886   -1.9889 H   0  0  0  0  0  0  0  0  0  0  0  0
   -3.8262    2.1353   -0.9964 H   0  0  0  0  0  0  0  0  0  0  0  0
   -3.9027    2.8921   -3.4072 H   0  0  0  0  0  0  0  0  0  0  0  0
   -2.2889    2.3562   -2.9247 H   0  0  0  0  0  0  0  0  0  0  0  0
   -3.3227    1.2945   -3.8970 H   0  0  0  0  0  0  0  0  0  0  0  0
   -3.5511    0.5641    2.8476 H   0  0  0  0  0  0  0  0  0  0  0  0
   -1.9885   -0.1937    2.4376 H   0  0  0  0  0  0  0  0  0  0  0  0
   -1.6629    1.9514    3.6739 H   0  0  0  0  0  0  0  0  0  0  0  0
   -0.9915    2.0460    2.0448 H   0  0  0  0  0  0  0  0  0  0  0  0
   -2.5452    2.8184    2.4016 H   0  0  0  0  0  0  0  0  0  0  0  0
  1  2  1  0  0  0  0
  2  3  1  0  0  0  0
  3  4  2  0  0  0  0
  4  5  2  0  0  0  0
  4  6  2  0  0  0  0
  6  7  1  0  0  0  0
  7  8  1  0  0  0  0
  4  9  1  0  0  0  0
  9 10  1  0  0  0  0
 10 11  1  0  0  0  0
 11 12  1  0  0  0  0
 12 13  2  0  0  0  0
 12 14  2  0  0  0  0
 14 15  1  0  0  0  0
 15 16  1  0  0  0  0
 12 17  2  0  0  0  0
 17 18  1  0  0  0  0
 18 19  1  0  0  0  0
  1 20  1  0  0  0  0
  1 21  1  0  0  0  0
  1 22  1  0  0  0  0
  2 23  1  0  0  0  0
  2 24  1  0  0  0  0
  7 25  1  0  0  0  0
  7 26  1  0  0  0  0
  8 27  1  0  0  0  0
  8 28  1  0  0  0  0
  8 29  1  0  0  0  0
 10 30  1  0  0  0  0
 10 31  1  0  0  0  0
 15 32  1  0  0  0  0
 15 33  1  0  0  0  0
 16 34  1  0  0  0  0
 16 35  1  0  0  0  0
 16 36  1  0  0  0  0
 18 37  1  0  0  0  0
 18 38  1  0  0  0  0
 19 39  1  0  0  0  0
 19 40  1  0  0  0  0
 19 41  1  0  0  0  0
M  END
