 xtb: 6.7.1 (edcfbbe)
          04092505213D

 41 40  0     0  0            999 V2000
    2.7734    0.2198   -3.0652 C   0  0  0  0  0  0  0  0  0  0  0  0
    2.3342   -1.1257   -2.5240 C   0  0  0  0  0  0  0  0  0  0  0  0
    1.5472   -0.9952   -1.3210 O   0  0  0  0  0  0  0  0  0  0  0  0
    2.1305   -0.5818    0.0931 P   0  0  0  0  0  0  0  0  0  0  0  0
    2.8365    1.2269    0.4080 S   0  0  0  0  0  0  0  0  0  0  0  0
    3.2283   -1.7209    0.2840 O   0  0  0  0  0  0  0  0  0  0  0  0
    4.2536   -1.6434    1.2878 C   0  0  0  0  0  0  0  0  0  0  0  0
    3.6884   -1.7740    2.6873 C   0  0  0  0  0  0  0  0  0  0  0  0
    0.5017   -1.1728    1.2917 S   0  0  0  0  0  0  0  0  0  0  0  0
   -0.0450    0.4475    1.9427 C   0  0  0  0  0  0  0  0  0  0  0  0
   -1.8275    0.6734    1.8226 S   0  0  0  0  0  0  0  0  0  0  0  0
   -2.0512    0.9789   -0.2787 P   0  0  0  0  0  0  0  0  0  0  0  0
   -0.4289    1.5718   -1.2027 S   0  0  0  0  0  0  0  0  0  0  0  0
   -3.2150    2.0226   -0.4308 O   0  0  0  0  0  0  0  0  0  0  0  0
   -4.6298    1.7478   -0.2623 C   0  0  0  0  0  0  0  0  0  0  0  0
   -4.9662    1.2570    1.1287 C   0  0  0  0  0  0  0  0  0  0  0  0
   -2.7228   -0.3464   -0.8541 O   0  0  0  0  0  0  0  0  0  0  0  0
   -1.9903   -1.5495   -1.1461 C   0  0  0  0  0  0  0  0  0  0  0  0
   -2.7613   -2.3188   -2.1999 C   0  0  0  0  0  0  0  0  0  0  0  0
    3.4944    0.6851   -2.3956 H   0  0  0  0  0  0  0  0  0  0  0  0
    3.2283    0.0877   -4.0416 H   0  0  0  0  0  0  0  0  0  0  0  0
    1.9143    0.8827   -3.1515 H   0  0  0  0  0  0  0  0  0  0  0  0
    3.1919   -1.7687   -2.3121 H   0  0  0  0  0  0  0  0  0  0  0  0
    1.6557   -1.6268   -3.2169 H   0  0  0  0  0  0  0  0  0  0  0  0
    4.9229   -2.4692    1.0432 H   0  0  0  0  0  0  0  0  0  0  0  0
    4.7773   -0.6888    1.1734 H   0  0  0  0  0  0  0  0  0  0  0  0
    3.0673   -2.6628    2.7633 H   0  0  0  0  0  0  0  0  0  0  0  0
    4.5044   -1.8394    3.3997 H   0  0  0  0  0  0  0  0  0  0  0  0
    3.0839   -0.8991    2.9234 H   0  0  0  0  0  0  0  0  0  0  0  0
    0.4772    1.2341    1.3914 H   0  0  0  0  0  0  0  0  0  0  0  0
    0.1852    0.4907    3.0042 H   0  0  0  0  0  0  0  0  0  0  0  0
   -5.0923    2.7132   -0.4726 H   0  0  0  0  0  0  0  0  0  0  0  0
   -4.9256    1.0192   -1.0188 H   0  0  0  0  0  0  0  0  0  0  0  0
   -4.5106    0.2853    1.3088 H   0  0  0  0  0  0  0  0  0  0  0  0
   -4.6019    1.9557    1.8774 H   0  0  0  0  0  0  0  0  0  0  0  0
   -6.0440    1.1641    1.2198 H   0  0  0  0  0  0  0  0  0  0  0  0
   -0.9894   -1.2793   -1.4997 H   0  0  0  0  0  0  0  0  0  0  0  0
   -1.8954   -2.1248   -0.2207 H   0  0  0  0  0  0  0  0  0  0  0  0
   -2.2382   -3.2443   -2.4165 H   0  0  0  0  0  0  0  0  0  0  0  0
   -3.7591   -2.5464   -1.8364 H   0  0  0  0  0  0  0  0  0  0  0  0
   -2.8415   -1.7299   -3.1096 H   0  0  0  0  0  0  0  0  0  0  0  0
  1  2  1  0  0  0  0
  2  3  1  0  0  0  0
  3  4  2  0  0  0  0
  4  5  2  0  0  0  0
  4  6  2  0  0  0  0
  6  7  1  0  0  0  0
  7  8  1  0  0  0  0
  4  9  1  0  0  0  0
  9 10  1  0  0  0  0
 10 11  1  0  0  0  0
 11 12  1  0  0  0  0
 12 13  2  0  0  0  0
 12 14  2  0  0  0  0
 14 15  1  0  0  0  0
 15 16  1  0  0  0  0
 12 17  2  0  0  0  0
 17 18  1  0  0  0  0
 18 19  1  0  0  0  0
  1 20  1  0  0  0  0
  1 21  1  0  0  0  0
  1 22  1  0  0  0  0
  2 23  1  0  0  0  0
  2 24  1  0  0  0  0
  7 25  1  0  0  0  0
  7 26  1  0  0  0  0
  8 27  1  0  0  0  0
  8 28  1  0  0  0  0
  8 29  1  0  0  0  0
 10 30  1  0  0  0  0
 10 31  1  0  0  0  0
 15 32  1  0  0  0  0
 15 33  1  0  0  0  0
 16 34  1  0  0  0  0
 16 35  1  0  0  0  0
 16 36  1  0  0  0  0
 18 37  1  0  0  0  0
 18 38  1  0  0  0  0
 19 39  1  0  0  0  0
 19 40  1  0  0  0  0
 19 41  1  0  0  0  0
M  END
