 xtb: 6.7.1 (edcfbbe)
          04092505213D

 41 40  0     0  0            999 V2000
    2.5737   -2.0503   -2.1902 C   0  0  0  0  0  0  0  0  0  0  0  0
    1.7791   -0.7630   -2.1343 C   0  0  0  0  0  0  0  0  0  0  0  0
    1.2153   -0.5718   -0.8182 O   0  0  0  0  0  0  0  0  0  0  0  0
    1.9349    0.3230    0.2666 P   0  0  0  0  0  0  0  0  0  0  0  0
    2.7184    2.0179   -0.3159 S   0  0  0  0  0  0  0  0  0  0  0  0
    2.9923   -0.7128    0.8671 O   0  0  0  0  0  0  0  0  0  0  0  0
    4.1112   -0.3114    1.6784 C   0  0  0  0  0  0  0  0  0  0  0  0
    5.3574   -1.0071    1.1656 C   0  0  0  0  0  0  0  0  0  0  0  0
    0.4460    0.4461    1.7558 S   0  0  0  0  0  0  0  0  0  0  0  0
   -0.0948   -1.2840    1.7945 C   0  0  0  0  0  0  0  0  0  0  0  0
   -1.1769   -1.7874    0.4097 S   0  0  0  0  0  0  0  0  0  0  0  0
   -2.0899    0.0342   -0.1294 P   0  0  0  0  0  0  0  0  0  0  0  0
   -1.1527    1.4453   -1.1438 S   0  0  0  0  0  0  0  0  0  0  0  0
   -2.6637    0.4480    1.2869 O   0  0  0  0  0  0  0  0  0  0  0  0
   -3.0349    1.8018    1.6113 C   0  0  0  0  0  0  0  0  0  0  0  0
   -4.2885    2.2267    0.8762 C   0  0  0  0  0  0  0  0  0  0  0  0
   -3.3939   -0.4744   -0.8860 O   0  0  0  0  0  0  0  0  0  0  0  0
   -3.4290   -0.6933   -2.3051 C   0  0  0  0  0  0  0  0  0  0  0  0
   -2.5884   -1.8880   -2.7077 C   0  0  0  0  0  0  0  0  0  0  0  0
    2.9331   -2.2003   -3.2033 H   0  0  0  0  0  0  0  0  0  0  0  0
    3.4220   -1.9968   -1.5125 H   0  0  0  0  0  0  0  0  0  0  0  0
    1.9431   -2.8871   -1.9020 H   0  0  0  0  0  0  0  0  0  0  0  0
    0.9166   -0.7884   -2.8042 H   0  0  0  0  0  0  0  0  0  0  0  0
    2.3957    0.1080   -2.3815 H   0  0  0  0  0  0  0  0  0  0  0  0
    4.2186    0.7767    1.6217 H   0  0  0  0  0  0  0  0  0  0  0  0
    3.8856   -0.6018    2.7067 H   0  0  0  0  0  0  0  0  0  0  0  0
    6.1940   -0.7567    1.8095 H   0  0  0  0  0  0  0  0  0  0  0  0
    5.2115   -2.0835    1.1668 H   0  0  0  0  0  0  0  0  0  0  0  0
    5.5784   -0.6780    0.1533 H   0  0  0  0  0  0  0  0  0  0  0  0
   -0.6489   -1.3944    2.7238 H   0  0  0  0  0  0  0  0  0  0  0  0
    0.7721   -1.9412    1.7655 H   0  0  0  0  0  0  0  0  0  0  0  0
   -3.1818    1.7808    2.6919 H   0  0  0  0  0  0  0  0  0  0  0  0
   -2.1956    2.4615    1.3659 H   0  0  0  0  0  0  0  0  0  0  0  0
   -4.0924    2.2636   -0.1949 H   0  0  0  0  0  0  0  0  0  0  0  0
   -5.0906    1.5177    1.0627 H   0  0  0  0  0  0  0  0  0  0  0  0
   -4.5880    3.2137    1.2143 H   0  0  0  0  0  0  0  0  0  0  0  0
   -4.4862   -0.8486   -2.5236 H   0  0  0  0  0  0  0  0  0  0  0  0
   -3.0738    0.2149   -2.8043 H   0  0  0  0  0  0  0  0  0  0  0  0
   -2.6937   -2.0642   -3.7734 H   0  0  0  0  0  0  0  0  0  0  0  0
   -1.5405   -1.6907   -2.4808 H   0  0  0  0  0  0  0  0  0  0  0  0
   -2.9004   -2.7724   -2.1583 H   0  0  0  0  0  0  0  0  0  0  0  0
  1  2  1  0  0  0  0
  2  3  1  0  0  0  0
  3  4  2  0  0  0  0
  4  5  2  0  0  0  0
  4  6  2  0  0  0  0
  6  7  1  0  0  0  0
  7  8  1  0  0  0  0
  4  9  1  0  0  0  0
  9 10  1  0  0  0  0
 10 11  1  0  0  0  0
 11 12  1  0  0  0  0
 12 13  2  0  0  0  0
 12 14  2  0  0  0  0
 14 15  1  0  0  0  0
 15 16  1  0  0  0  0
 12 17  2  0  0  0  0
 17 18  1  0  0  0  0
 18 19  1  0  0  0  0
  1 20  1  0  0  0  0
  1 21  1  0  0  0  0
  1 22  1  0  0  0  0
  2 23  1  0  0  0  0
  2 24  1  0  0  0  0
  7 25  1  0  0  0  0
  7 26  1  0  0  0  0
  8 27  1  0  0  0  0
  8 28  1  0  0  0  0
  8 29  1  0  0  0  0
 10 30  1  0  0  0  0
 10 31  1  0  0  0  0
 15 32  1  0  0  0  0
 15 33  1  0  0  0  0
 16 34  1  0  0  0  0
 16 35  1  0  0  0  0
 16 36  1  0  0  0  0
 18 37  1  0  0  0  0
 18 38  1  0  0  0  0
 19 39  1  0  0  0  0
 19 40  1  0  0  0  0
 19 41  1  0  0  0  0
M  END
