 xtb: 6.7.1 (edcfbbe)
          04092507313D

 38 37  0     0  0            999 V2000
    4.0403   -3.6984    0.3900 C   0  0  0  0  0  0  0  0  0  0  0  0
    3.0299   -2.6177    0.7186 C   0  0  0  0  0  0  0  0  0  0  0  0
    2.9413   -1.7332   -0.4182 O   0  0  0  0  0  0  0  0  0  0  0  0
    1.9267   -0.9137   -0.4945 C   0  0  0  0  0  0  0  0  0  0  0  0
    1.0567   -0.8377    0.3605 O   0  0  0  0  0  0  0  0  0  0  0  0
    1.9316   -0.0805   -1.7482 C   0  0  0  0  0  0  0  0  0  0  0  0
    0.7691    0.8967   -1.7504 C   0  0  0  0  0  0  0  0  0  0  0  0
    0.7176    1.4433   -2.6952 H   0  0  0  0  0  0  0  0  0  0  0  0
    0.8226    1.9027   -0.6118 C   0  0  0  0  0  0  0  0  0  0  0  0
    1.7099    1.9320    0.2133 O   0  0  0  0  0  0  0  0  0  0  0  0
   -0.1855    2.7390   -0.6794 O   0  0  0  0  0  0  0  0  0  0  0  0
   -0.3423    3.7495    0.3352 C   0  0  0  0  0  0  0  0  0  0  0  0
   -1.8236    3.9147    0.6189 C   0  0  0  0  0  0  0  0  0  0  0  0
   -0.8560    0.0427   -1.7151 S   0  0  0  0  0  0  0  0  0  0  0  0
   -1.3362   -0.4386    0.3104 P   0  0  0  0  0  0  0  0  0  0  0  0
   -1.3227   -2.3100    0.9215 S   0  0  0  0  0  0  0  0  0  0  0  0
   -0.8584    0.7132    1.2990 O   0  0  0  0  0  0  0  0  0  0  0  0
   -0.0915    0.4854    2.4805 C   0  0  0  0  0  0  0  0  0  0  0  0
   -2.8645    0.0811    0.2750 O   0  0  0  0  0  0  0  0  0  0  0  0
   -3.8535   -0.5859   -0.5068 C   0  0  0  0  0  0  0  0  0  0  0  0
    5.0043   -3.2500    0.1704 H   0  0  0  0  0  0  0  0  0  0  0  0
    4.1382   -4.3646    1.2404 H   0  0  0  0  0  0  0  0  0  0  0  0
    3.7108   -4.2683   -0.4735 H   0  0  0  0  0  0  0  0  0  0  0  0
    3.3390   -2.0243    1.5844 H   0  0  0  0  0  0  0  0  0  0  0  0
    2.0352   -3.0301    0.9177 H   0  0  0  0  0  0  0  0  0  0  0  0
    1.8667   -0.7453   -2.6110 H   0  0  0  0  0  0  0  0  0  0  0  0
    2.8807    0.4572   -1.7945 H   0  0  0  0  0  0  0  0  0  0  0  0
    0.2129    3.4394    1.2248 H   0  0  0  0  0  0  0  0  0  0  0  0
    0.0937    4.6706   -0.0614 H   0  0  0  0  0  0  0  0  0  0  0  0
   -2.2428    2.9717    0.9626 H   0  0  0  0  0  0  0  0  0  0  0  0
   -1.9614    4.6698    1.3855 H   0  0  0  0  0  0  0  0  0  0  0  0
   -2.3431    4.2169   -0.2855 H   0  0  0  0  0  0  0  0  0  0  0  0
   -0.5762    1.0462    3.2772 H   0  0  0  0  0  0  0  0  0  0  0  0
    0.9243    0.8456    2.3126 H   0  0  0  0  0  0  0  0  0  0  0  0
   -0.0698   -0.5783    2.7228 H   0  0  0  0  0  0  0  0  0  0  0  0
   -4.8029   -0.1394   -0.2225 H   0  0  0  0  0  0  0  0  0  0  0  0
   -3.8512   -1.6544   -0.2806 H   0  0  0  0  0  0  0  0  0  0  0  0
   -3.6597   -0.4339   -1.5698 H   0  0  0  0  0  0  0  0  0  0  0  0
  1  2  1  0  0  0  0
  2  3  1  0  0  0  0
  3  4  4  0  0  0  0
  4  5  2  0  0  0  0
  4  6  1  0  0  0  0
  6  7  1  0  0  0  0
  7  8  1  0  0  0  0
  7  9  1  0  0  0  0
  9 10  2  0  0  0  0
  9 11  4  0  0  0  0
 11 12  1  0  0  0  0
 12 13  1  0  0  0  0
  7 14  1  0  0  0  0
 14 15  1  0  0  0  0
 15 16  2  0  0  0  0
 15 17  1  0  0  0  0
 17 18  1  0  0  0  0
 15 19  1  0  0  0  0
 19 20  1  0  0  0  0
  1 21  1  0  0  0  0
  1 22  1  0  0  0  0
  1 23  1  0  0  0  0
  2 24  1  0  0  0  0
  2 25  1  0  0  0  0
  6 26  1  0  0  0  0
  6 27  1  0  0  0  0
 12 28  1  0  0  0  0
 12 29  1  0  0  0  0
 13 30  1  0  0  0  0
 13 31  1  0  0  0  0
 13 32  1  0  0  0  0
 18 33  1  0  0  0  0
 18 34  1  0  0  0  0
 18 35  1  0  0  0  0
 20 36  1  0  0  0  0
 20 37  1  0  0  0  0
 20 38  1  0  0  0  0
M  END
