 xtb: 6.7.1 (edcfbbe)
          04092507313D

 38 37  0     0  0            999 V2000
    3.0259   -3.6115    0.9575 C   0  0  0  0  0  0  0  0  0  0  0  0
    3.0681   -2.0956    1.0237 C   0  0  0  0  0  0  0  0  0  0  0  0
    2.6544   -1.5654   -0.2512 O   0  0  0  0  0  0  0  0  0  0  0  0
    1.7415   -0.6360   -0.3037 C   0  0  0  0  0  0  0  0  0  0  0  0
    1.2353   -0.0854    0.6629 O   0  0  0  0  0  0  0  0  0  0  0  0
    1.3859   -0.2489   -1.7219 C   0  0  0  0  0  0  0  0  0  0  0  0
    0.4608    0.9593   -1.6837 C   0  0  0  0  0  0  0  0  0  0  0  0
    0.4202    1.4363   -2.6675 H   0  0  0  0  0  0  0  0  0  0  0  0
    0.9989    1.9839   -0.6907 C   0  0  0  0  0  0  0  0  0  0  0  0
    2.1770    2.2667   -0.6535 O   0  0  0  0  0  0  0  0  0  0  0  0
    0.0641    2.5459    0.0400 O   0  0  0  0  0  0  0  0  0  0  0  0
    0.4655    3.5817    0.9600 C   0  0  0  0  0  0  0  0  0  0  0  0
    0.5644    4.9245    0.2549 C   0  0  0  0  0  0  0  0  0  0  0  0
   -1.2880    0.5506   -1.3720 S   0  0  0  0  0  0  0  0  0  0  0  0
   -1.4378   -0.8159    0.2518 P   0  0  0  0  0  0  0  0  0  0  0  0
   -0.5418   -2.5565    0.1642 S   0  0  0  0  0  0  0  0  0  0  0  0
   -1.2957   -0.0647    1.6351 O   0  0  0  0  0  0  0  0  0  0  0  0
   -2.1371    1.0513    1.9832 C   0  0  0  0  0  0  0  0  0  0  0  0
   -3.0326   -0.9858    0.2058 O   0  0  0  0  0  0  0  0  0  0  0  0
   -3.6798   -1.7463   -0.8189 C   0  0  0  0  0  0  0  0  0  0  0  0
    2.0068   -3.9450    0.7746 H   0  0  0  0  0  0  0  0  0  0  0  0
    3.6619   -3.9645    0.1519 H   0  0  0  0  0  0  0  0  0  0  0  0
    3.3724   -4.0207    1.9004 H   0  0  0  0  0  0  0  0  0  0  0  0
    4.0834   -1.7302    1.1970 H   0  0  0  0  0  0  0  0  0  0  0  0
    2.3993   -1.7062    1.7969 H   0  0  0  0  0  0  0  0  0  0  0  0
    0.9229   -1.1000   -2.2244 H   0  0  0  0  0  0  0  0  0  0  0  0
    2.3112   -0.0005   -2.2442 H   0  0  0  0  0  0  0  0  0  0  0  0
   -0.3129    3.5881    1.7227 H   0  0  0  0  0  0  0  0  0  0  0  0
    1.4249    3.2955    1.4001 H   0  0  0  0  0  0  0  0  0  0  0  0
   -0.3777    5.1613   -0.2318 H   0  0  0  0  0  0  0  0  0  0  0  0
    0.7948    5.6929    0.9853 H   0  0  0  0  0  0  0  0  0  0  0  0
    1.3550    4.8983   -0.4913 H   0  0  0  0  0  0  0  0  0  0  0  0
   -1.7120    1.4469    2.9022 H   0  0  0  0  0  0  0  0  0  0  0  0
   -3.1565    0.7046    2.1433 H   0  0  0  0  0  0  0  0  0  0  0  0
   -2.1148    1.7979    1.1896 H   0  0  0  0  0  0  0  0  0  0  0  0
   -4.6824   -1.9441   -0.4484 H   0  0  0  0  0  0  0  0  0  0  0  0
   -3.1442   -2.6825   -0.9851 H   0  0  0  0  0  0  0  0  0  0  0  0
   -3.7158   -1.1674   -1.7408 H   0  0  0  0  0  0  0  0  0  0  0  0
  1  2  1  0  0  0  0
  2  3  1  0  0  0  0
  3  4  4  0  0  0  0
  4  5  2  0  0  0  0
  4  6  1  0  0  0  0
  6  7  1  0  0  0  0
  7  8  1  0  0  0  0
  7  9  1  0  0  0  0
  9 10  2  0  0  0  0
  9 11  1  0  0  0  0
 11 12  1  0  0  0  0
 12 13  1  0  0  0  0
  7 14  1  0  0  0  0
 14 15  1  0  0  0  0
 15 16  2  0  0  0  0
 15 17  2  0  0  0  0
 17 18  1  0  0  0  0
 15 19  1  0  0  0  0
 19 20  1  0  0  0  0
  1 21  1  0  0  0  0
  1 22  1  0  0  0  0
  1 23  1  0  0  0  0
  2 24  1  0  0  0  0
  2 25  1  0  0  0  0
  6 26  1  0  0  0  0
  6 27  1  0  0  0  0
 12 28  1  0  0  0  0
 12 29  1  0  0  0  0
 13 30  1  0  0  0  0
 13 31  1  0  0  0  0
 13 32  1  0  0  0  0
 18 33  1  0  0  0  0
 18 34  1  0  0  0  0
 18 35  1  0  0  0  0
 20 36  1  0  0  0  0
 20 37  1  0  0  0  0
 20 38  1  0  0  0  0
M  END
