 xtb: 6.7.1 (edcfbbe)
          04092505213D

 41 40  0     0  0            999 V2000
    4.1728    0.4045   -2.5994 C   0  0  0  0  0  0  0  0  0  0  0  0
    4.6178   -0.2310   -1.2971 C   0  0  0  0  0  0  0  0  0  0  0  0
    3.5013   -0.6717   -0.5025 O   0  0  0  0  0  0  0  0  0  0  0  0
    2.5465    0.3667    0.2202 P   0  0  0  0  0  0  0  0  0  0  0  0
    3.3603    2.0148    0.8908 S   0  0  0  0  0  0  0  0  0  0  0  0
    1.9947   -0.6383    1.3124 O   0  0  0  0  0  0  0  0  0  0  0  0
    1.2605   -0.1759    2.4631 C   0  0  0  0  0  0  0  0  0  0  0  0
    1.1006   -1.3549    3.4002 C   0  0  0  0  0  0  0  0  0  0  0  0
    0.9213    0.6575   -1.1310 S   0  0  0  0  0  0  0  0  0  0  0  0
    0.4553   -1.0852   -1.3440 C   0  0  0  0  0  0  0  0  0  0  0  0
   -0.6401   -1.7128   -0.0369 S   0  0  0  0  0  0  0  0  0  0  0  0
   -2.1507   -0.2583   -0.2531 P   0  0  0  0  0  0  0  0  0  0  0  0
   -2.5758    0.3012   -2.0874 S   0  0  0  0  0  0  0  0  0  0  0  0
   -1.6460    0.8674    0.7437 O   0  0  0  0  0  0  0  0  0  0  0  0
   -2.0289    2.2486    0.5870 C   0  0  0  0  0  0  0  0  0  0  0  0
   -3.4892    2.4574    0.9255 C   0  0  0  0  0  0  0  0  0  0  0  0
   -3.3628   -0.8739    0.5648 O   0  0  0  0  0  0  0  0  0  0  0  0
   -4.2010   -1.9083    0.0091 C   0  0  0  0  0  0  0  0  0  0  0  0
   -5.4809   -1.9557    0.8188 C   0  0  0  0  0  0  0  0  0  0  0  0
    5.0464    0.6526   -3.1937 H   0  0  0  0  0  0  0  0  0  0  0  0
    3.5384   -0.2763   -3.1614 H   0  0  0  0  0  0  0  0  0  0  0  0
    3.6148    1.3181   -2.3952 H   0  0  0  0  0  0  0  0  0  0  0  0
    5.2070    0.4777   -0.7067 H   0  0  0  0  0  0  0  0  0  0  0  0
    5.1942   -1.1414   -1.4672 H   0  0  0  0  0  0  0  0  0  0  0  0
    1.8205    0.6428    2.9271 H   0  0  0  0  0  0  0  0  0  0  0  0
    0.2863    0.2024    2.1371 H   0  0  0  0  0  0  0  0  0  0  0  0
    0.5573   -1.0368    4.2838 H   0  0  0  0  0  0  0  0  0  0  0  0
    0.5490   -2.1470    2.9008 H   0  0  0  0  0  0  0  0  0  0  0  0
    2.0763   -1.7325    3.6912 H   0  0  0  0  0  0  0  0  0  0  0  0
    1.3458   -1.7096   -1.3313 H   0  0  0  0  0  0  0  0  0  0  0  0
   -0.0640   -1.1404   -2.2996 H   0  0  0  0  0  0  0  0  0  0  0  0
   -1.3682    2.7869    1.2685 H   0  0  0  0  0  0  0  0  0  0  0  0
   -1.8171    2.5519   -0.4438 H   0  0  0  0  0  0  0  0  0  0  0  0
   -3.7228    3.5163    0.8777 H   0  0  0  0  0  0  0  0  0  0  0  0
   -4.1111    1.9235    0.2078 H   0  0  0  0  0  0  0  0  0  0  0  0
   -3.7003    2.0819    1.9232 H   0  0  0  0  0  0  0  0  0  0  0  0
   -4.3975   -1.6705   -1.0418 H   0  0  0  0  0  0  0  0  0  0  0  0
   -3.6572   -2.8550    0.0663 H   0  0  0  0  0  0  0  0  0  0  0  0
   -6.1129   -2.7515    0.4386 H   0  0  0  0  0  0  0  0  0  0  0  0
   -5.2506   -2.1457    1.8630 H   0  0  0  0  0  0  0  0  0  0  0  0
   -6.0101   -1.0103    0.7413 H   0  0  0  0  0  0  0  0  0  0  0  0
  1  2  1  0  0  0  0
  2  3  1  0  0  0  0
  3  4  2  0  0  0  0
  4  5  2  0  0  0  0
  4  6  2  0  0  0  0
  6  7  1  0  0  0  0
  7  8  1  0  0  0  0
  4  9  1  0  0  0  0
  9 10  1  0  0  0  0
 10 11  1  0  0  0  0
 11 12  1  0  0  0  0
 12 13  2  0  0  0  0
 12 14  2  0  0  0  0
 14 15  1  0  0  0  0
 15 16  1  0  0  0  0
 12 17  2  0  0  0  0
 17 18  1  0  0  0  0
 18 19  1  0  0  0  0
  1 20  1  0  0  0  0
  1 21  1  0  0  0  0
  1 22  1  0  0  0  0
  2 23  1  0  0  0  0
  2 24  1  0  0  0  0
  7 25  1  0  0  0  0
  7 26  1  0  0  0  0
  8 27  1  0  0  0  0
  8 28  1  0  0  0  0
  8 29  1  0  0  0  0
 10 30  1  0  0  0  0
 10 31  1  0  0  0  0
 15 32  1  0  0  0  0
 15 33  1  0  0  0  0
 16 34  1  0  0  0  0
 16 35  1  0  0  0  0
 16 36  1  0  0  0  0
 18 37  1  0  0  0  0
 18 38  1  0  0  0  0
 19 39  1  0  0  0  0
 19 40  1  0  0  0  0
 19 41  1  0  0  0  0
M  END
