 xtb: 6.7.1 (edcfbbe)
          04092507313D

 38 37  0     0  0            999 V2000
    3.9792   -3.8304   -1.4700 C   0  0  0  0  0  0  0  0  0  0  0  0
    2.9137   -2.9599   -2.1170 C   0  0  0  0  0  0  0  0  0  0  0  0
    2.7221   -1.7397   -1.3751 O   0  0  0  0  0  0  0  0  0  0  0  0
    1.8913   -1.7504   -0.3533 C   0  0  0  0  0  0  0  0  0  0  0  0
    1.2617   -2.7160    0.0166 O   0  0  0  0  0  0  0  0  0  0  0  0
    1.7748   -0.3737    0.2761 C   0  0  0  0  0  0  0  0  0  0  0  0
    0.9443    0.5209   -0.6462 C   0  0  0  0  0  0  0  0  0  0  0  0
    1.5017    0.7273   -1.5650 H   0  0  0  0  0  0  0  0  0  0  0  0
    0.5608    1.8423    0.0006 C   0  0  0  0  0  0  0  0  0  0  0  0
   -0.5639    2.2954   -0.0630 O   0  0  0  0  0  0  0  0  0  0  0  0
    1.5751    2.4012    0.5996 O   0  0  0  0  0  0  0  0  0  0  0  0
    1.3609    3.6596    1.2750 C   0  0  0  0  0  0  0  0  0  0  0  0
    1.4466    4.8235    0.3021 C   0  0  0  0  0  0  0  0  0  0  0  0
   -0.5893   -0.2838   -1.2196 S   0  0  0  0  0  0  0  0  0  0  0  0
   -1.8468   -0.0099    0.4740 P   0  0  0  0  0  0  0  0  0  0  0  0
   -1.0864    0.3322    2.2459 S   0  0  0  0  0  0  0  0  0  0  0  0
   -3.0050    0.9920    0.0948 O   0  0  0  0  0  0  0  0  0  0  0  0
   -3.7396    0.9085   -1.1416 C   0  0  0  0  0  0  0  0  0  0  0  0
   -2.6650   -1.3937    0.4227 O   0  0  0  0  0  0  0  0  0  0  0  0
   -2.0719   -2.6175    0.8651 C   0  0  0  0  0  0  0  0  0  0  0  0
    3.6532   -4.1486   -0.4824 H   0  0  0  0  0  0  0  0  0  0  0  0
    4.1466   -4.7085   -2.0849 H   0  0  0  0  0  0  0  0  0  0  0  0
    4.9091   -3.2766   -1.3750 H   0  0  0  0  0  0  0  0  0  0  0  0
    1.9582   -3.4892   -2.1680 H   0  0  0  0  0  0  0  0  0  0  0  0
    3.2187   -2.6285   -3.1095 H   0  0  0  0  0  0  0  0  0  0  0  0
    2.7635    0.0676    0.3961 H   0  0  0  0  0  0  0  0  0  0  0  0
    1.2903   -0.4737    1.2492 H   0  0  0  0  0  0  0  0  0  0  0  0
    0.3835    3.6255    1.7647 H   0  0  0  0  0  0  0  0  0  0  0  0
    2.1559    3.6979    2.0193 H   0  0  0  0  0  0  0  0  0  0  0  0
    0.6419    4.7634   -0.4272 H   0  0  0  0  0  0  0  0  0  0  0  0
    1.3523    5.7539    0.8521 H   0  0  0  0  0  0  0  0  0  0  0  0
    2.4011    4.8086   -0.2167 H   0  0  0  0  0  0  0  0  0  0  0  0
   -3.0559    1.0020   -1.9853 H   0  0  0  0  0  0  0  0  0  0  0  0
   -4.4309    1.7467   -1.1135 H   0  0  0  0  0  0  0  0  0  0  0  0
   -4.2743   -0.0385   -1.1925 H   0  0  0  0  0  0  0  0  0  0  0  0
   -2.8265   -3.3826    0.7055 H   0  0  0  0  0  0  0  0  0  0  0  0
   -1.8161   -2.5437    1.9229 H   0  0  0  0  0  0  0  0  0  0  0  0
   -1.1695   -2.8412    0.2938 H   0  0  0  0  0  0  0  0  0  0  0  0
  1  2  1  0  0  0  0
  2  3  1  0  0  0  0
  3  4  1  0  0  0  0
  4  5  2  0  0  0  0
  4  6  1  0  0  0  0
  6  7  1  0  0  0  0
  7  8  1  0  0  0  0
  7  9  1  0  0  0  0
  9 10  2  0  0  0  0
  9 11  4  0  0  0  0
 11 12  1  0  0  0  0
 12 13  1  0  0  0  0
  7 14  1  0  0  0  0
 14 15  1  0  0  0  0
 15 16  2  0  0  0  0
 15 17  2  0  0  0  0
 17 18  1  0  0  0  0
 15 19  1  0  0  0  0
 19 20  1  0  0  0  0
  1 21  1  0  0  0  0
  1 22  1  0  0  0  0
  1 23  1  0  0  0  0
  2 24  1  0  0  0  0
  2 25  1  0  0  0  0
  6 26  1  0  0  0  0
  6 27  1  0  0  0  0
 12 28  1  0  0  0  0
 12 29  1  0  0  0  0
 13 30  1  0  0  0  0
 13 31  1  0  0  0  0
 13 32  1  0  0  0  0
 18 33  1  0  0  0  0
 18 34  1  0  0  0  0
 18 35  1  0  0  0  0
 20 36  1  0  0  0  0
 20 37  1  0  0  0  0
 20 38  1  0  0  0  0
M  END
