 xtb: 6.7.1 (edcfbbe)
          04092507313D

 38 37  0     0  0            999 V2000
    3.3561   -3.1414    0.4672 C   0  0  0  0  0  0  0  0  0  0  0  0
    2.9810   -1.7334    0.9005 C   0  0  0  0  0  0  0  0  0  0  0  0
    2.7257   -0.8903   -0.2391 O   0  0  0  0  0  0  0  0  0  0  0  0
    1.5480   -0.9412   -0.8109 C   0  0  0  0  0  0  0  0  0  0  0  0
    0.6326   -1.6602   -0.4486 O   0  0  0  0  0  0  0  0  0  0  0  0
    1.4269    0.0119   -1.9775 C   0  0  0  0  0  0  0  0  0  0  0  0
    0.2149    0.9214   -1.7949 C   0  0  0  0  0  0  0  0  0  0  0  0
    0.0857    1.5493   -2.6824 H   0  0  0  0  0  0  0  0  0  0  0  0
    0.2922    1.8431   -0.5868 C   0  0  0  0  0  0  0  0  0  0  0  0
   -0.6913    2.3748   -0.1139 O   0  0  0  0  0  0  0  0  0  0  0  0
    1.5185    2.0147   -0.1703 O   0  0  0  0  0  0  0  0  0  0  0  0
    1.7336    2.8569    0.9810 C   0  0  0  0  0  0  0  0  0  0  0  0
    3.2181    3.1446    1.0750 C   0  0  0  0  0  0  0  0  0  0  0  0
   -1.3722    0.0169   -1.7044 S   0  0  0  0  0  0  0  0  0  0  0  0
   -1.5756   -0.5212    0.3510 P   0  0  0  0  0  0  0  0  0  0  0  0
   -0.3710   -0.0311    1.8177 S   0  0  0  0  0  0  0  0  0  0  0  0
   -3.0731    0.0158    0.6259 O   0  0  0  0  0  0  0  0  0  0  0  0
   -3.4072    1.3879    0.8206 C   0  0  0  0  0  0  0  0  0  0  0  0
   -1.8917   -2.0676    0.3816 O   0  0  0  0  0  0  0  0  0  0  0  0
   -2.7652   -2.7161   -0.5597 C   0  0  0  0  0  0  0  0  0  0  0  0
    2.5148   -3.6154   -0.0335 H   0  0  0  0  0  0  0  0  0  0  0  0
    4.2047   -3.1103   -0.2106 H   0  0  0  0  0  0  0  0  0  0  0  0
    3.6166   -3.7259    1.3433 H   0  0  0  0  0  0  0  0  0  0  0  0
    3.8049   -1.2427    1.4182 H   0  0  0  0  0  0  0  0  0  0  0  0
    2.0901   -1.7407    1.5360 H   0  0  0  0  0  0  0  0  0  0  0  0
    1.2855   -0.5752   -2.8865 H   0  0  0  0  0  0  0  0  0  0  0  0
    2.3355    0.6079   -2.0485 H   0  0  0  0  0  0  0  0  0  0  0  0
    1.1398    3.7675    0.8577 H   0  0  0  0  0  0  0  0  0  0  0  0
    1.3628    2.3150    1.8576 H   0  0  0  0  0  0  0  0  0  0  0  0
    3.5530    3.6849    0.1947 H   0  0  0  0  0  0  0  0  0  0  0  0
    3.4078    3.7444    1.9585 H   0  0  0  0  0  0  0  0  0  0  0  0
    3.7692    2.2122    1.1496 H   0  0  0  0  0  0  0  0  0  0  0  0
   -4.4343    1.3901    1.1766 H   0  0  0  0  0  0  0  0  0  0  0  0
   -3.3182    1.9339   -0.1184 H   0  0  0  0  0  0  0  0  0  0  0  0
   -2.7421    1.8385    1.5588 H   0  0  0  0  0  0  0  0  0  0  0  0
   -3.7456   -2.2425   -0.5504 H   0  0  0  0  0  0  0  0  0  0  0  0
   -2.8284   -3.7461   -0.2181 H   0  0  0  0  0  0  0  0  0  0  0  0
   -2.3313   -2.6680   -1.5583 H   0  0  0  0  0  0  0  0  0  0  0  0
  1  2  1  0  0  0  0
  2  3  1  0  0  0  0
  3  4  4  0  0  0  0
  4  5  2  0  0  0  0
  4  6  1  0  0  0  0
  6  7  1  0  0  0  0
  7  8  1  0  0  0  0
  7  9  1  0  0  0  0
  9 10  2  0  0  0  0
  9 11  4  0  0  0  0
 11 12  1  0  0  0  0
 12 13  1  0  0  0  0
  7 14  1  0  0  0  0
 14 15  1  0  0  0  0
 15 16  2  0  0  0  0
 15 17  1  0  0  0  0
 17 18  1  0  0  0  0
 15 19  2  0  0  0  0
 19 20  1  0  0  0  0
  1 21  1  0  0  0  0
  1 22  1  0  0  0  0
  1 23  1  0  0  0  0
  2 24  1  0  0  0  0
  2 25  1  0  0  0  0
  6 26  1  0  0  0  0
  6 27  1  0  0  0  0
 12 28  1  0  0  0  0
 12 29  1  0  0  0  0
 13 30  1  0  0  0  0
 13 31  1  0  0  0  0
 13 32  1  0  0  0  0
 18 33  1  0  0  0  0
 18 34  1  0  0  0  0
 18 35  1  0  0  0  0
 20 36  1  0  0  0  0
 20 37  1  0  0  0  0
 20 38  1  0  0  0  0
M  END
