 xtb: 6.7.1 (edcfbbe)
          04092505213D

 41 40  0     0  0            999 V2000
    4.5535    0.7595   -2.2175 C   0  0  0  0  0  0  0  0  0  0  0  0
    4.8716   -0.2300   -1.1154 C   0  0  0  0  0  0  0  0  0  0  0  0
    3.7042   -0.9520   -0.6843 O   0  0  0  0  0  0  0  0  0  0  0  0
    2.5048   -0.2440    0.0857 P   0  0  0  0  0  0  0  0  0  0  0  0
    3.0754    1.1103    1.3901 S   0  0  0  0  0  0  0  0  0  0  0  0
    1.7307   -1.4896    0.6808 O   0  0  0  0  0  0  0  0  0  0  0  0
    2.2378   -2.1929    1.8414 C   0  0  0  0  0  0  0  0  0  0  0  0
    1.0664   -2.8114    2.5743 C   0  0  0  0  0  0  0  0  0  0  0  0
    1.1497    0.3572   -1.4052 S   0  0  0  0  0  0  0  0  0  0  0  0
    0.2119    1.5139   -0.3625 C   0  0  0  0  0  0  0  0  0  0  0  0
   -0.8238    0.6988    0.8772 S   0  0  0  0  0  0  0  0  0  0  0  0
   -2.4480    0.2264   -0.4375 P   0  0  0  0  0  0  0  0  0  0  0  0
   -2.0981   -0.9440   -1.9624 S   0  0  0  0  0  0  0  0  0  0  0  0
   -2.9573    1.6460   -0.9043 O   0  0  0  0  0  0  0  0  0  0  0  0
   -3.4625    2.6618    0.0004 C   0  0  0  0  0  0  0  0  0  0  0  0
   -4.9737    2.6009    0.0846 C   0  0  0  0  0  0  0  0  0  0  0  0
   -3.5834   -0.2648    0.5598 O   0  0  0  0  0  0  0  0  0  0  0  0
   -3.7324   -1.6483    0.9260 C   0  0  0  0  0  0  0  0  0  0  0  0
   -2.5409   -2.1544    1.7113 C   0  0  0  0  0  0  0  0  0  0  0  0
    3.9184    1.5553   -1.8298 H   0  0  0  0  0  0  0  0  0  0  0  0
    5.4760    1.1940   -2.5888 H   0  0  0  0  0  0  0  0  0  0  0  0
    4.0326    0.2632   -3.0327 H   0  0  0  0  0  0  0  0  0  0  0  0
    5.2974    0.2845   -0.2479 H   0  0  0  0  0  0  0  0  0  0  0  0
    5.5516   -1.0115   -1.4569 H   0  0  0  0  0  0  0  0  0  0  0  0
    2.9386   -2.9516    1.4857 H   0  0  0  0  0  0  0  0  0  0  0  0
    2.7714   -1.4770    2.4765 H   0  0  0  0  0  0  0  0  0  0  0  0
    0.5284   -3.4847    1.9133 H   0  0  0  0  0  0  0  0  0  0  0  0
    1.4371   -3.3665    3.4298 H   0  0  0  0  0  0  0  0  0  0  0  0
    0.3887   -2.0338    2.9157 H   0  0  0  0  0  0  0  0  0  0  0  0
   -0.4085    2.1010   -1.0363 H   0  0  0  0  0  0  0  0  0  0  0  0
    0.9125    2.1443    0.1864 H   0  0  0  0  0  0  0  0  0  0  0  0
   -3.0041    2.5231    0.9830 H   0  0  0  0  0  0  0  0  0  0  0  0
   -3.1292    3.6053   -0.4361 H   0  0  0  0  0  0  0  0  0  0  0  0
   -5.4048    2.6823   -0.9095 H   0  0  0  0  0  0  0  0  0  0  0  0
   -5.2899    1.6609    0.5282 H   0  0  0  0  0  0  0  0  0  0  0  0
   -5.3275    3.4241    0.6975 H   0  0  0  0  0  0  0  0  0  0  0  0
   -4.6467   -1.6658    1.5206 H   0  0  0  0  0  0  0  0  0  0  0  0
   -3.8680   -2.2342    0.0117 H   0  0  0  0  0  0  0  0  0  0  0  0
   -2.3518   -1.5106    2.5670 H   0  0  0  0  0  0  0  0  0  0  0  0
   -2.7346   -3.1654    2.0547 H   0  0  0  0  0  0  0  0  0  0  0  0
   -1.6579   -2.1603    1.0726 H   0  0  0  0  0  0  0  0  0  0  0  0
  1  2  1  0  0  0  0
  2  3  1  0  0  0  0
  3  4  2  0  0  0  0
  4  5  2  0  0  0  0
  4  6  2  0  0  0  0
  6  7  1  0  0  0  0
  7  8  1  0  0  0  0
  4  9  1  0  0  0  0
  9 10  1  0  0  0  0
 10 11  1  0  0  0  0
 11 12  1  0  0  0  0
 12 13  2  0  0  0  0
 12 14  2  0  0  0  0
 14 15  1  0  0  0  0
 15 16  1  0  0  0  0
 12 17  2  0  0  0  0
 17 18  1  0  0  0  0
 18 19  1  0  0  0  0
  1 20  1  0  0  0  0
  1 21  1  0  0  0  0
  1 22  1  0  0  0  0
  2 23  1  0  0  0  0
  2 24  1  0  0  0  0
  7 25  1  0  0  0  0
  7 26  1  0  0  0  0
  8 27  1  0  0  0  0
  8 28  1  0  0  0  0
  8 29  1  0  0  0  0
 10 30  1  0  0  0  0
 10 31  1  0  0  0  0
 15 32  1  0  0  0  0
 15 33  1  0  0  0  0
 16 34  1  0  0  0  0
 16 35  1  0  0  0  0
 16 36  1  0  0  0  0
 18 37  1  0  0  0  0
 18 38  1  0  0  0  0
 19 39  1  0  0  0  0
 19 40  1  0  0  0  0
 19 41  1  0  0  0  0
M  END
