 xtb: 6.7.1 (edcfbbe)
          04092505213D

 41 40  0     0  0            999 V2000
    5.3679    0.2246   -0.7998 C   0  0  0  0  0  0  0  0  0  0  0  0
    4.0824   -0.3013   -1.4086 C   0  0  0  0  0  0  0  0  0  0  0  0
    3.1260   -0.6294   -0.3832 O   0  0  0  0  0  0  0  0  0  0  0  0
    2.0147    0.4180    0.0867 P   0  0  0  0  0  0  0  0  0  0  0  0
    2.6238    2.2053    0.6028 S   0  0  0  0  0  0  0  0  0  0  0  0
    1.2795   -0.4235    1.2023 O   0  0  0  0  0  0  0  0  0  0  0  0
    1.5770   -0.2535    2.6017 C   0  0  0  0  0  0  0  0  0  0  0  0
    2.9364   -0.8235    2.9450 C   0  0  0  0  0  0  0  0  0  0  0  0
    0.6168    0.4094   -1.5002 S   0  0  0  0  0  0  0  0  0  0  0  0
    0.1618   -1.3459   -1.5405 C   0  0  0  0  0  0  0  0  0  0  0  0
   -0.8863   -1.8925   -0.1530 S   0  0  0  0  0  0  0  0  0  0  0  0
   -2.2297   -0.2824   -0.1064 P   0  0  0  0  0  0  0  0  0  0  0  0
   -2.8956    0.4478   -1.8057 S   0  0  0  0  0  0  0  0  0  0  0  0
   -1.4393    0.6993    0.8652 O   0  0  0  0  0  0  0  0  0  0  0  0
   -1.9538    2.0098    1.1911 C   0  0  0  0  0  0  0  0  0  0  0  0
   -1.3150    3.0752    0.3223 C   0  0  0  0  0  0  0  0  0  0  0  0
   -3.3925   -0.7722    0.8647 O   0  0  0  0  0  0  0  0  0  0  0  0
   -4.5744   -1.4320    0.3766 C   0  0  0  0  0  0  0  0  0  0  0  0
   -4.2729   -2.8237   -0.1401 C   0  0  0  0  0  0  0  0  0  0  0  0
    5.1801    1.1557   -0.2695 H   0  0  0  0  0  0  0  0  0  0  0  0
    5.7749   -0.5022   -0.1024 H   0  0  0  0  0  0  0  0  0  0  0  0
    6.0891    0.4080   -1.5895 H   0  0  0  0  0  0  0  0  0  0  0  0
    4.2531   -1.2384   -1.9422 H   0  0  0  0  0  0  0  0  0  0  0  0
    3.6428    0.4337   -2.0909 H   0  0  0  0  0  0  0  0  0  0  0  0
    1.5313    0.8139    2.8412 H   0  0  0  0  0  0  0  0  0  0  0  0
    0.7682   -0.7834    3.1069 H   0  0  0  0  0  0  0  0  0  0  0  0
    2.9970   -1.8624    2.6322 H   0  0  0  0  0  0  0  0  0  0  0  0
    3.7104   -0.2535    2.4324 H   0  0  0  0  0  0  0  0  0  0  0  0
    3.0971   -0.7556    4.0163 H   0  0  0  0  0  0  0  0  0  0  0  0
    1.0541   -1.9668   -1.5089 H   0  0  0  0  0  0  0  0  0  0  0  0
   -0.3816   -1.4766   -2.4747 H   0  0  0  0  0  0  0  0  0  0  0  0
   -3.0410    2.0068    1.0715 H   0  0  0  0  0  0  0  0  0  0  0  0
   -1.7019    2.1518    2.2436 H   0  0  0  0  0  0  0  0  0  0  0  0
   -1.6818    4.0512    0.6233 H   0  0  0  0  0  0  0  0  0  0  0  0
   -0.2324    3.0544    0.4303 H   0  0  0  0  0  0  0  0  0  0  0  0
   -1.5610    2.9089   -0.7248 H   0  0  0  0  0  0  0  0  0  0  0  0
   -5.2376   -1.4554    1.2422 H   0  0  0  0  0  0  0  0  0  0  0  0
   -5.0126   -0.8144   -0.4143 H   0  0  0  0  0  0  0  0  0  0  0  0
   -3.6596   -2.7610   -1.0379 H   0  0  0  0  0  0  0  0  0  0  0  0
   -3.7363   -3.3977    0.6111 H   0  0  0  0  0  0  0  0  0  0  0  0
   -5.2038   -3.3257   -0.3832 H   0  0  0  0  0  0  0  0  0  0  0  0
  1  2  1  0  0  0  0
  2  3  1  0  0  0  0
  3  4  1  0  0  0  0
  4  5  2  0  0  0  0
  4  6  2  0  0  0  0
  6  7  1  0  0  0  0
  7  8  1  0  0  0  0
  4  9  1  0  0  0  0
  9 10  1  0  0  0  0
 10 11  1  0  0  0  0
 11 12  1  0  0  0  0
 12 13  2  0  0  0  0
 12 14  1  0  0  0  0
 14 15  1  0  0  0  0
 15 16  1  0  0  0  0
 12 17  2  0  0  0  0
 17 18  1  0  0  0  0
 18 19  1  0  0  0  0
  1 20  1  0  0  0  0
  1 21  1  0  0  0  0
  1 22  1  0  0  0  0
  2 23  1  0  0  0  0
  2 24  1  0  0  0  0
  7 25  1  0  0  0  0
  7 26  1  0  0  0  0
  8 27  1  0  0  0  0
  8 28  1  0  0  0  0
  8 29  1  0  0  0  0
 10 30  1  0  0  0  0
 10 31  1  0  0  0  0
 15 32  1  0  0  0  0
 15 33  1  0  0  0  0
 16 34  1  0  0  0  0
 16 35  1  0  0  0  0
 16 36  1  0  0  0  0
 18 37  1  0  0  0  0
 18 38  1  0  0  0  0
 19 39  1  0  0  0  0
 19 40  1  0  0  0  0
 19 41  1  0  0  0  0
M  END
