 xtb: 6.7.1 (edcfbbe)
          04092505213D

 41 40  0     0  0            999 V2000
    5.6407    0.3095   -0.8270 C   0  0  0  0  0  0  0  0  0  0  0  0
    4.1755    0.4146   -1.1980 C   0  0  0  0  0  0  0  0  0  0  0  0
    3.3993    0.1005   -0.0241 O   0  0  0  0  0  0  0  0  0  0  0  0
    1.8337    0.3764    0.0122 P   0  0  0  0  0  0  0  0  0  0  0  0
    1.3186    2.2130   -0.4019 S   0  0  0  0  0  0  0  0  0  0  0  0
    1.4633   -0.0579    1.4795 O   0  0  0  0  0  0  0  0  0  0  0  0
    1.9719   -1.2719    2.0897 C   0  0  0  0  0  0  0  0  0  0  0  0
    3.1572   -0.9606    2.9778 C   0  0  0  0  0  0  0  0  0  0  0  0
    1.1083   -1.1192   -1.3356 S   0  0  0  0  0  0  0  0  0  0  0  0
   -0.1407   -0.1561   -2.2273 C   0  0  0  0  0  0  0  0  0  0  0  0
   -1.8422   -0.7467   -2.0034 S   0  0  0  0  0  0  0  0  0  0  0  0
   -2.0574   -0.6483    0.0847 P   0  0  0  0  0  0  0  0  0  0  0  0
   -1.2833   -2.0010    1.2675 S   0  0  0  0  0  0  0  0  0  0  0  0
   -3.6249   -0.6815    0.3109 O   0  0  0  0  0  0  0  0  0  0  0  0
   -4.6477   -0.1426   -0.5637 C   0  0  0  0  0  0  0  0  0  0  0  0
   -4.5958    1.3672   -0.6621 C   0  0  0  0  0  0  0  0  0  0  0  0
   -1.5262    0.8393    0.3504 O   0  0  0  0  0  0  0  0  0  0  0  0
   -1.5927    1.3815    1.6870 C   0  0  0  0  0  0  0  0  0  0  0  0
   -1.7451    2.8847    1.5856 C   0  0  0  0  0  0  0  0  0  0  0  0
    5.8658   -0.6950   -0.4805 H   0  0  0  0  0  0  0  0  0  0  0  0
    6.2445    0.5314   -1.7006 H   0  0  0  0  0  0  0  0  0  0  0  0
    5.8785    1.0176   -0.0381 H   0  0  0  0  0  0  0  0  0  0  0  0
    3.9101   -0.2968   -1.9851 H   0  0  0  0  0  0  0  0  0  0  0  0
    3.9150    1.4263   -1.5254 H   0  0  0  0  0  0  0  0  0  0  0  0
    1.1287   -1.6696    2.6584 H   0  0  0  0  0  0  0  0  0  0  0  0
    2.2333   -1.9826    1.3017 H   0  0  0  0  0  0  0  0  0  0  0  0
    3.4728   -1.8732    3.4733 H   0  0  0  0  0  0  0  0  0  0  0  0
    3.9794   -0.5680    2.3854 H   0  0  0  0  0  0  0  0  0  0  0  0
    2.8777   -0.2239    3.7260 H   0  0  0  0  0  0  0  0  0  0  0  0
    0.0516   -0.2639   -3.2923 H   0  0  0  0  0  0  0  0  0  0  0  0
   -0.0665    0.8893   -1.9140 H   0  0  0  0  0  0  0  0  0  0  0  0
   -4.5354   -0.6049   -1.5470 H   0  0  0  0  0  0  0  0  0  0  0  0
   -5.5741   -0.4843   -0.0990 H   0  0  0  0  0  0  0  0  0  0  0  0
   -5.4156    1.7070   -1.2875 H   0  0  0  0  0  0  0  0  0  0  0  0
   -4.6932    1.8132    0.3248 H   0  0  0  0  0  0  0  0  0  0  0  0
   -3.6568    1.6873   -1.1090 H   0  0  0  0  0  0  0  0  0  0  0  0
   -2.4353    0.9205    2.2129 H   0  0  0  0  0  0  0  0  0  0  0  0
   -0.6658    1.1097    2.2003 H   0  0  0  0  0  0  0  0  0  0  0  0
   -1.7532    3.3058    2.5856 H   0  0  0  0  0  0  0  0  0  0  0  0
   -0.9098    3.2999    1.0275 H   0  0  0  0  0  0  0  0  0  0  0  0
   -2.6691    3.1417    1.0764 H   0  0  0  0  0  0  0  0  0  0  0  0
  1  2  1  0  0  0  0
  2  3  1  0  0  0  0
  3  4  2  0  0  0  0
  4  5  2  0  0  0  0
  4  6  2  0  0  0  0
  6  7  1  0  0  0  0
  7  8  1  0  0  0  0
  4  9  1  0  0  0  0
  9 10  1  0  0  0  0
 10 11  1  0  0  0  0
 11 12  1  0  0  0  0
 12 13  2  0  0  0  0
 12 14  2  0  0  0  0
 14 15  1  0  0  0  0
 15 16  1  0  0  0  0
 12 17  1  0  0  0  0
 17 18  1  0  0  0  0
 18 19  1  0  0  0  0
  1 20  1  0  0  0  0
  1 21  1  0  0  0  0
  1 22  1  0  0  0  0
  2 23  1  0  0  0  0
  2 24  1  0  0  0  0
  7 25  1  0  0  0  0
  7 26  1  0  0  0  0
  8 27  1  0  0  0  0
  8 28  1  0  0  0  0
  8 29  1  0  0  0  0
 10 30  1  0  0  0  0
 10 31  1  0  0  0  0
 15 32  1  0  0  0  0
 15 33  1  0  0  0  0
 16 34  1  0  0  0  0
 16 35  1  0  0  0  0
 16 36  1  0  0  0  0
 18 37  1  0  0  0  0
 18 38  1  0  0  0  0
 19 39  1  0  0  0  0
 19 40  1  0  0  0  0
 19 41  1  0  0  0  0
M  END
