 xtb: 6.7.1 (edcfbbe)
          04092507313D

 38 37  0     0  0            999 V2000
    2.6077   -4.1243    0.1098 C   0  0  0  0  0  0  0  0  0  0  0  0
    2.5368   -2.6606    0.4954 C   0  0  0  0  0  0  0  0  0  0  0  0
    2.1684   -1.9110   -0.6790 O   0  0  0  0  0  0  0  0  0  0  0  0
    2.1251   -0.6027   -0.5996 C   0  0  0  0  0  0  0  0  0  0  0  0
    2.3591    0.0417    0.4041 O   0  0  0  0  0  0  0  0  0  0  0  0
    1.7587    0.0416   -1.9244 C   0  0  0  0  0  0  0  0  0  0  0  0
    0.5200    0.9275   -1.7591 C   0  0  0  0  0  0  0  0  0  0  0  0
    0.4250    1.5975   -2.6164 H   0  0  0  0  0  0  0  0  0  0  0  0
    0.6063    1.7492   -0.4874 C   0  0  0  0  0  0  0  0  0  0  0  0
   -0.1678    1.5908    0.4405 O   0  0  0  0  0  0  0  0  0  0  0  0
    1.5584    2.6306   -0.5353 O   0  0  0  0  0  0  0  0  0  0  0  0
    1.7979    3.4480    0.6323 C   0  0  0  0  0  0  0  0  0  0  0  0
    0.8179    4.6069    0.7015 C   0  0  0  0  0  0  0  0  0  0  0  0
   -1.0254   -0.0426   -1.7287 S   0  0  0  0  0  0  0  0  0  0  0  0
   -1.5979   -0.3109    0.2813 P   0  0  0  0  0  0  0  0  0  0  0  0
   -0.4844   -1.0073    1.7540 S   0  0  0  0  0  0  0  0  0  0  0  0
   -2.6068    0.8896    0.5751 O   0  0  0  0  0  0  0  0  0  0  0  0
   -3.4951    0.8245    1.7001 C   0  0  0  0  0  0  0  0  0  0  0  0
   -2.7231   -1.4343   -0.0438 O   0  0  0  0  0  0  0  0  0  0  0  0
   -2.4027   -2.8143   -0.2131 C   0  0  0  0  0  0  0  0  0  0  0  0
    1.6407   -4.4590   -0.2533 H   0  0  0  0  0  0  0  0  0  0  0  0
    3.3481   -4.2688   -0.6712 H   0  0  0  0  0  0  0  0  0  0  0  0
    2.8831   -4.7084    0.9812 H   0  0  0  0  0  0  0  0  0  0  0  0
    3.4987   -2.2820    0.8545 H   0  0  0  0  0  0  0  0  0  0  0  0
    1.7858   -2.4747    1.2707 H   0  0  0  0  0  0  0  0  0  0  0  0
    1.5731   -0.7280   -2.6716 H   0  0  0  0  0  0  0  0  0  0  0  0
    2.5981    0.6703   -2.2280 H   0  0  0  0  0  0  0  0  0  0  0  0
    1.7232    2.8087    1.5163 H   0  0  0  0  0  0  0  0  0  0  0  0
    2.8228    3.7943    0.5022 H   0  0  0  0  0  0  0  0  0  0  0  0
    0.8712    5.1978   -0.2086 H   0  0  0  0  0  0  0  0  0  0  0  0
   -0.1968    4.2351    0.8273 H   0  0  0  0  0  0  0  0  0  0  0  0
    1.0686    5.2334    1.5510 H   0  0  0  0  0  0  0  0  0  0  0  0
   -3.9097    1.8247    1.7977 H   0  0  0  0  0  0  0  0  0  0  0  0
   -2.9437    0.5492    2.6012 H   0  0  0  0  0  0  0  0  0  0  0  0
   -4.2805    0.0939    1.5088 H   0  0  0  0  0  0  0  0  0  0  0  0
   -1.6970   -3.1283    0.5594 H   0  0  0  0  0  0  0  0  0  0  0  0
   -1.9725   -2.9778   -1.2011 H   0  0  0  0  0  0  0  0  0  0  0  0
   -3.3418   -3.3522   -0.1103 H   0  0  0  0  0  0  0  0  0  0  0  0
  1  2  1  0  0  0  0
  2  3  1  0  0  0  0
  3  4  4  0  0  0  0
  4  5  2  0  0  0  0
  4  6  1  0  0  0  0
  6  7  1  0  0  0  0
  7  8  1  0  0  0  0
  7  9  1  0  0  0  0
  9 10  2  0  0  0  0
  9 11  4  0  0  0  0
 11 12  1  0  0  0  0
 12 13  1  0  0  0  0
  7 14  1  0  0  0  0
 14 15  1  0  0  0  0
 15 16  2  0  0  0  0
 15 17  1  0  0  0  0
 17 18  1  0  0  0  0
 15 19  1  0  0  0  0
 19 20  1  0  0  0  0
  1 21  1  0  0  0  0
  1 22  1  0  0  0  0
  1 23  1  0  0  0  0
  2 24  1  0  0  0  0
  2 25  1  0  0  0  0
  6 26  1  0  0  0  0
  6 27  1  0  0  0  0
 12 28  1  0  0  0  0
 12 29  1  0  0  0  0
 13 30  1  0  0  0  0
 13 31  1  0  0  0  0
 13 32  1  0  0  0  0
 18 33  1  0  0  0  0
 18 34  1  0  0  0  0
 18 35  1  0  0  0  0
 20 36  1  0  0  0  0
 20 37  1  0  0  0  0
 20 38  1  0  0  0  0
M  END
