 xtb: 6.7.1 (edcfbbe)
          04092505213D

 41 40  0     0  0            999 V2000
    4.5165   -1.3479   -1.2153 C   0  0  0  0  0  0  0  0  0  0  0  0
    4.6745   -0.0023   -0.5371 C   0  0  0  0  0  0  0  0  0  0  0  0
    3.6346    0.2421    0.4225 O   0  0  0  0  0  0  0  0  0  0  0  0
    2.1132    0.4654   -0.0007 P   0  0  0  0  0  0  0  0  0  0  0  0
    1.9344    1.4641   -1.6865 S   0  0  0  0  0  0  0  0  0  0  0  0
    1.5319    1.0382    1.3546 O   0  0  0  0  0  0  0  0  0  0  0  0
    2.0450    2.1997    2.0406 C   0  0  0  0  0  0  0  0  0  0  0  0
    1.6934    3.4849    1.3188 C   0  0  0  0  0  0  0  0  0  0  0  0
    1.2207   -1.4474    0.0651 S   0  0  0  0  0  0  0  0  0  0  0  0
    0.2876   -1.4298   -1.5074 C   0  0  0  0  0  0  0  0  0  0  0  0
   -1.4015   -2.0583   -1.3246 S   0  0  0  0  0  0  0  0  0  0  0  0
   -2.2782   -0.4978   -0.1973 P   0  0  0  0  0  0  0  0  0  0  0  0
   -1.3268    1.2212   -0.1002 S   0  0  0  0  0  0  0  0  0  0  0  0
   -2.7007   -1.1778    1.1798 O   0  0  0  0  0  0  0  0  0  0  0  0
   -1.8027   -1.7815    2.1263 C   0  0  0  0  0  0  0  0  0  0  0  0
   -1.1195   -0.7492    3.0020 C   0  0  0  0  0  0  0  0  0  0  0  0
   -3.6787   -0.4249   -0.9267 O   0  0  0  0  0  0  0  0  0  0  0  0
   -4.5173    0.7458   -0.8714 C   0  0  0  0  0  0  0  0  0  0  0  0
   -5.1183    0.9320    0.5059 C   0  0  0  0  0  0  0  0  0  0  0  0
    4.4112   -2.1356   -0.4736 H   0  0  0  0  0  0  0  0  0  0  0  0
    3.6310   -1.3380   -1.8498 H   0  0  0  0  0  0  0  0  0  0  0  0
    5.3876   -1.5444   -1.8319 H   0  0  0  0  0  0  0  0  0  0  0  0
    4.6582    0.8040   -1.2775 H   0  0  0  0  0  0  0  0  0  0  0  0
    5.5919    0.0488    0.0508 H   0  0  0  0  0  0  0  0  0  0  0  0
    1.5605    2.1505    3.0175 H   0  0  0  0  0  0  0  0  0  0  0  0
    3.1260    2.0899    2.1548 H   0  0  0  0  0  0  0  0  0  0  0  0
    2.2203    3.5460    0.3682 H   0  0  0  0  0  0  0  0  0  0  0  0
    0.6242    3.5154    1.1177 H   0  0  0  0  0  0  0  0  0  0  0  0
    1.9704    4.3347    1.9343 H   0  0  0  0  0  0  0  0  0  0  0  0
    0.7697   -2.1065   -2.2083 H   0  0  0  0  0  0  0  0  0  0  0  0
    0.2776   -0.4055   -1.8899 H   0  0  0  0  0  0  0  0  0  0  0  0
   -2.4490   -2.4345    2.7159 H   0  0  0  0  0  0  0  0  0  0  0  0
   -1.0643   -2.3854    1.5883 H   0  0  0  0  0  0  0  0  0  0  0  0
   -1.8594   -0.1305    3.5027 H   0  0  0  0  0  0  0  0  0  0  0  0
   -0.5122   -1.2581    3.7436 H   0  0  0  0  0  0  0  0  0  0  0  0
   -0.4757   -0.1074    2.4037 H   0  0  0  0  0  0  0  0  0  0  0  0
   -3.9185    1.6181   -1.1539 H   0  0  0  0  0  0  0  0  0  0  0  0
   -5.2799    0.5585   -1.6283 H   0  0  0  0  0  0  0  0  0  0  0  0
   -4.3248    1.1287    1.2260 H   0  0  0  0  0  0  0  0  0  0  0  0
   -5.8031    1.7741    0.4919 H   0  0  0  0  0  0  0  0  0  0  0  0
   -5.6499    0.0336    0.8072 H   0  0  0  0  0  0  0  0  0  0  0  0
  1  2  1  0  0  0  0
  2  3  1  0  0  0  0
  3  4  2  0  0  0  0
  4  5  2  0  0  0  0
  4  6  2  0  0  0  0
  6  7  1  0  0  0  0
  7  8  1  0  0  0  0
  4  9  1  0  0  0  0
  9 10  1  0  0  0  0
 10 11  1  0  0  0  0
 11 12  1  0  0  0  0
 12 13  2  0  0  0  0
 12 14  2  0  0  0  0
 14 15  1  0  0  0  0
 15 16  1  0  0  0  0
 12 17  2  0  0  0  0
 17 18  1  0  0  0  0
 18 19  1  0  0  0  0
  1 20  1  0  0  0  0
  1 21  1  0  0  0  0
  1 22  1  0  0  0  0
  2 23  1  0  0  0  0
  2 24  1  0  0  0  0
  7 25  1  0  0  0  0
  7 26  1  0  0  0  0
  8 27  1  0  0  0  0
  8 28  1  0  0  0  0
  8 29  1  0  0  0  0
 10 30  1  0  0  0  0
 10 31  1  0  0  0  0
 15 32  1  0  0  0  0
 15 33  1  0  0  0  0
 16 34  1  0  0  0  0
 16 35  1  0  0  0  0
 16 36  1  0  0  0  0
 18 37  1  0  0  0  0
 18 38  1  0  0  0  0
 19 39  1  0  0  0  0
 19 40  1  0  0  0  0
 19 41  1  0  0  0  0
M  END
