 xtb: 6.7.1 (edcfbbe)
          04032519423D

 20 20  0     0  0            999 V2000
    0.6058    1.7000   -0.0334 C   0  0  0  0  0  0  0  0  0  0  0  0
    1.3994    0.4068   -0.2467 C   0  0  0  0  0  0  0  0  0  0  0  0
    1.6221    0.2830   -1.3177 H   0  0  0  0  0  0  0  0  0  0  0  0
    0.5535   -0.7994    0.1941 C   0  0  0  0  0  0  0  0  0  0  0  0
    0.3857   -0.7513    1.2793 H   0  0  0  0  0  0  0  0  0  0  0  0
   -0.8096   -0.7636   -0.5028 C   0  0  0  0  0  0  0  0  0  0  0  0
   -0.6364   -0.8973   -1.5810 H   0  0  0  0  0  0  0  0  0  0  0  0
   -1.4746    0.6161   -0.2876 C   0  0  0  0  0  0  0  0  0  0  0  0
   -2.3590    0.6970   -0.9373 H   0  0  0  0  0  0  0  0  0  0  0  0
   -0.6341    1.6586   -0.7232 O   0  0  0  0  0  0  0  0  0  0  0  0
   -1.8142    0.7420    1.0530 O   0  0  0  0  0  0  0  0  0  0  0  0
   -1.5963   -1.7997    0.0155 O   0  0  0  0  0  0  0  0  0  0  0  0
    1.1921   -2.0023   -0.1553 O   0  0  0  0  0  0  0  0  0  0  0  0
    2.5818    0.3796    0.5169 O   0  0  0  0  0  0  0  0  0  0  0  0
    1.1288    2.5644   -0.4430 H   0  0  0  0  0  0  0  0  0  0  0  0
    0.4391    1.8370    1.0419 H   0  0  0  0  0  0  0  0  0  0  0  0
   -2.3874    1.5131    1.1849 H   0  0  0  0  0  0  0  0  0  0  0  0
   -2.4081   -1.8929   -0.5035 H   0  0  0  0  0  0  0  0  0  0  0  0
    2.0539   -2.0222    0.2877 H   0  0  0  0  0  0  0  0  0  0  0  0
    3.1889    1.0683    0.2113 H   0  0  0  0  0  0  0  0  0  0  0  0
  1  2  1  0  0  0  0
  2  3  1  0  0  0  0
  2  4  1  0  0  0  0
  4  5  1  0  0  0  0
  4  6  1  0  0  0  0
  6  7  1  0  0  0  0
  6  8  1  0  0  0  0
  8  9  1  0  0  0  0
  1 10  1  0  0  0  0
  8 10  1  0  0  0  0
  8 11  1  0  0  0  0
  6 12  1  0  0  0  0
  4 13  1  0  0  0  0
  2 14  1  0  0  0  0
  1 15  1  0  0  0  0
  1 16  1  0  0  0  0
 11 17  1  0  0  0  0
 12 18  1  0  0  0  0
 13 19  1  0  0  0  0
 14 20  1  0  0  0  0
M  END
