 xtb: 6.7.1 (edcfbbe)
          04092507313D

 38 37  0     0  0            999 V2000
    3.4758   -3.0569    0.4435 C   0  0  0  0  0  0  0  0  0  0  0  0
    2.9163   -1.7339    0.9403 C   0  0  0  0  0  0  0  0  0  0  0  0
    2.7074   -0.8188   -0.1531 O   0  0  0  0  0  0  0  0  0  0  0  0
    1.6082   -0.9209   -0.8691 C   0  0  0  0  0  0  0  0  0  0  0  0
    0.7151   -1.7189   -0.6581 O   0  0  0  0  0  0  0  0  0  0  0  0
    1.5659    0.1038   -1.9833 C   0  0  0  0  0  0  0  0  0  0  0  0
    0.3317    0.9979   -1.8327 C   0  0  0  0  0  0  0  0  0  0  0  0
    0.2839    1.6995   -2.6698 H   0  0  0  0  0  0  0  0  0  0  0  0
    0.3435    1.7769   -0.5328 C   0  0  0  0  0  0  0  0  0  0  0  0
   -0.6316    1.8263    0.1985 O   0  0  0  0  0  0  0  0  0  0  0  0
    1.4840    2.3463   -0.2892 O   0  0  0  0  0  0  0  0  0  0  0  0
    1.6536    3.0454    0.9661 C   0  0  0  0  0  0  0  0  0  0  0  0
    3.1411    3.2232    1.1930 C   0  0  0  0  0  0  0  0  0  0  0  0
   -1.2424    0.0715   -1.9000 S   0  0  0  0  0  0  0  0  0  0  0  0
   -1.6371   -0.4160    0.1257 P   0  0  0  0  0  0  0  0  0  0  0  0
   -0.5503   -0.5570    1.7706 S   0  0  0  0  0  0  0  0  0  0  0  0
   -3.0310    0.3236    0.4320 O   0  0  0  0  0  0  0  0  0  0  0  0
   -3.2118    1.4426    1.2954 C   0  0  0  0  0  0  0  0  0  0  0  0
   -2.2267   -1.8374   -0.3203 O   0  0  0  0  0  0  0  0  0  0  0  0
   -2.7672   -2.7656    0.6205 C   0  0  0  0  0  0  0  0  0  0  0  0
    4.3884   -2.8882   -0.1214 H   0  0  0  0  0  0  0  0  0  0  0  0
    3.6912   -3.6942    1.2946 H   0  0  0  0  0  0  0  0  0  0  0  0
    2.7481   -3.5549   -0.1935 H   0  0  0  0  0  0  0  0  0  0  0  0
    3.6250   -1.2202    1.5895 H   0  0  0  0  0  0  0  0  0  0  0  0
    1.9666   -1.8779    1.4643 H   0  0  0  0  0  0  0  0  0  0  0  0
    1.4929   -0.4259   -2.9334 H   0  0  0  0  0  0  0  0  0  0  0  0
    2.4707    0.7096   -1.9491 H   0  0  0  0  0  0  0  0  0  0  0  0
    1.1354    4.0050    0.8894 H   0  0  0  0  0  0  0  0  0  0  0  0
    1.1830    2.4520    1.7562 H   0  0  0  0  0  0  0  0  0  0  0  0
    3.5749    3.8016    0.3834 H   0  0  0  0  0  0  0  0  0  0  0  0
    3.2980    3.7437    2.1316 H   0  0  0  0  0  0  0  0  0  0  0  0
    3.6294    2.2541    1.2368 H   0  0  0  0  0  0  0  0  0  0  0  0
   -4.2353    1.3757    1.6572 H   0  0  0  0  0  0  0  0  0  0  0  0
   -3.0544    2.3649    0.7394 H   0  0  0  0  0  0  0  0  0  0  0  0
   -2.5057    1.3917    2.1263 H   0  0  0  0  0  0  0  0  0  0  0  0
   -2.8263   -3.7156    0.0954 H   0  0  0  0  0  0  0  0  0  0  0  0
   -3.7565   -2.4379    0.9410 H   0  0  0  0  0  0  0  0  0  0  0  0
   -2.1072   -2.8509    1.4869 H   0  0  0  0  0  0  0  0  0  0  0  0
  1  2  1  0  0  0  0
  2  3  1  0  0  0  0
  3  4  4  0  0  0  0
  4  5  2  0  0  0  0
  4  6  1  0  0  0  0
  6  7  1  0  0  0  0
  7  8  1  0  0  0  0
  7  9  1  0  0  0  0
  9 10  2  0  0  0  0
  9 11  4  0  0  0  0
 11 12  1  0  0  0  0
 12 13  1  0  0  0  0
  7 14  1  0  0  0  0
 14 15  1  0  0  0  0
 15 16  2  0  0  0  0
 15 17  1  0  0  0  0
 17 18  1  0  0  0  0
 15 19  1  0  0  0  0
 19 20  1  0  0  0  0
  1 21  1  0  0  0  0
  1 22  1  0  0  0  0
  1 23  1  0  0  0  0
  2 24  1  0  0  0  0
  2 25  1  0  0  0  0
  6 26  1  0  0  0  0
  6 27  1  0  0  0  0
 12 28  1  0  0  0  0
 12 29  1  0  0  0  0
 13 30  1  0  0  0  0
 13 31  1  0  0  0  0
 13 32  1  0  0  0  0
 18 33  1  0  0  0  0
 18 34  1  0  0  0  0
 18 35  1  0  0  0  0
 20 36  1  0  0  0  0
 20 37  1  0  0  0  0
 20 38  1  0  0  0  0
M  END
