 xtb: 6.7.1 (edcfbbe)
          04032519403D

 15 15  0     0  0            999 V2000
   -0.7884   -1.1943    0.1933 C   0  0  0  0  0  0  0  0  0  0  0  0
    0.7627   -1.1713    0.2349 C   0  0  0  0  0  0  0  0  0  0  0  0
    1.2586    0.0000   -0.3918 O   0  0  0  0  0  0  0  0  0  0  0  0
    0.7624    1.1783    0.2219 C   0  0  0  0  0  0  0  0  0  0  0  0
   -0.7893    1.1865    0.2088 C   0  0  0  0  0  0  0  0  0  0  0  0
   -1.3168    0.0003   -0.4450 N   0  0  0  0  0  0  0  0  0  0  0  0
   -1.1944   -1.2308    1.2075 H   0  0  0  0  0  0  0  0  0  0  0  0
   -1.1477   -2.0636   -0.3567 H   0  0  0  0  0  0  0  0  0  0  0  0
    1.1311   -1.2125    1.2699 H   0  0  0  0  0  0  0  0  0  0  0  0
    1.1957   -1.9969   -0.3303 H   0  0  0  0  0  0  0  0  0  0  0  0
    1.1493    1.2434    1.2490 H   0  0  0  0  0  0  0  0  0  0  0  0
    1.1768    1.9965   -0.3675 H   0  0  0  0  0  0  0  0  0  0  0  0
   -1.1778    1.1970    1.2304 H   0  0  0  0  0  0  0  0  0  0  0  0
   -1.1663    2.0640   -0.3157 H   0  0  0  0  0  0  0  0  0  0  0  0
   -1.0186    0.0072   -1.4178 H   0  0  0  0  0  0  0  0  0  0  0  0
  1  2  1  0  0  0  0
  2  3  1  0  0  0  0
  3  4  1  0  0  0  0
  4  5  1  0  0  0  0
  1  6  1  0  0  0  0
  5  6  1  0  0  0  0
  1  7  1  0  0  0  0
  1  8  1  0  0  0  0
  2  9  1  0  0  0  0
  2 10  1  0  0  0  0
  4 11  1  0  0  0  0
  4 12  1  0  0  0  0
  5 13  1  0  0  0  0
  5 14  1  0  0  0  0
  6 15  1  0  0  0  0
M  END
