 xtb: 6.7.1 (edcfbbe)
          04092507313D

 38 37  0     0  0            999 V2000
    5.4638   -2.1250   -1.7450 C   0  0  0  0  0  0  0  0  0  0  0  0
    4.9185   -1.0310   -0.8408 C   0  0  0  0  0  0  0  0  0  0  0  0
    3.6585   -1.4200   -0.2602 O   0  0  0  0  0  0  0  0  0  0  0  0
    2.5577   -1.2035   -0.9507 C   0  0  0  0  0  0  0  0  0  0  0  0
    2.5157   -0.6756   -2.0394 O   0  0  0  0  0  0  0  0  0  0  0  0
    1.3332   -1.7083   -0.2069 C   0  0  0  0  0  0  0  0  0  0  0  0
    0.2436   -0.6453   -0.2564 C   0  0  0  0  0  0  0  0  0  0  0  0
    0.0887   -0.3227   -1.2947 H   0  0  0  0  0  0  0  0  0  0  0  0
    0.5864    0.5935    0.5477 C   0  0  0  0  0  0  0  0  0  0  0  0
   -0.2473    1.1984    1.1913 O   0  0  0  0  0  0  0  0  0  0  0  0
    1.8448    0.9261    0.4406 O   0  0  0  0  0  0  0  0  0  0  0  0
    2.3088    2.0986    1.1480 C   0  0  0  0  0  0  0  0  0  0  0  0
    2.7206    1.7386    2.5656 C   0  0  0  0  0  0  0  0  0  0  0  0
   -1.3393   -1.2909    0.3737 S   0  0  0  0  0  0  0  0  0  0  0  0
   -2.5359    0.4397    0.0665 P   0  0  0  0  0  0  0  0  0  0  0  0
   -1.9662    1.6878   -1.3317 S   0  0  0  0  0  0  0  0  0  0  0  0
   -3.9461   -0.2555   -0.2766 O   0  0  0  0  0  0  0  0  0  0  0  0
   -4.1541   -0.9564   -1.5050 C   0  0  0  0  0  0  0  0  0  0  0  0
   -2.9276    1.1068    1.4417 O   0  0  0  0  0  0  0  0  0  0  0  0
   -3.4521    0.3432    2.5462 C   0  0  0  0  0  0  0  0  0  0  0  0
    5.5472   -3.0583   -1.1951 H   0  0  0  0  0  0  0  0  0  0  0  0
    4.8017   -2.2714   -2.5953 H   0  0  0  0  0  0  0  0  0  0  0  0
    6.4438   -1.8346   -2.1088 H   0  0  0  0  0  0  0  0  0  0  0  0
    4.7709   -0.1034   -1.4009 H   0  0  0  0  0  0  0  0  0  0  0  0
    5.5724   -0.8613    0.0146 H   0  0  0  0  0  0  0  0  0  0  0  0
    1.6034   -1.9568    0.8181 H   0  0  0  0  0  0  0  0  0  0  0  0
    0.9708   -2.6066   -0.7101 H   0  0  0  0  0  0  0  0  0  0  0  0
    3.1559    2.4497    0.5587 H   0  0  0  0  0  0  0  0  0  0  0  0
    1.5088    2.8441    1.1451 H   0  0  0  0  0  0  0  0  0  0  0  0
    1.8558    1.4032    3.1333 H   0  0  0  0  0  0  0  0  0  0  0  0
    3.4654    0.9476    2.5489 H   0  0  0  0  0  0  0  0  0  0  0  0
    3.1389    2.6160    3.0474 H   0  0  0  0  0  0  0  0  0  0  0  0
   -3.6252   -1.9092   -1.4822 H   0  0  0  0  0  0  0  0  0  0  0  0
   -3.8024   -0.3538   -2.3443 H   0  0  0  0  0  0  0  0  0  0  0  0
   -5.2272   -1.1141   -1.5750 H   0  0  0  0  0  0  0  0  0  0  0  0
   -4.4309   -0.0564    2.2872 H   0  0  0  0  0  0  0  0  0  0  0  0
   -3.5239    1.0513    3.3676 H   0  0  0  0  0  0  0  0  0  0  0  0
   -2.7684   -0.4684    2.7959 H   0  0  0  0  0  0  0  0  0  0  0  0
  1  2  1  0  0  0  0
  2  3  1  0  0  0  0
  3  4  1  0  0  0  0
  4  5  2  0  0  0  0
  4  6  1  0  0  0  0
  6  7  1  0  0  0  0
  7  8  1  0  0  0  0
  7  9  1  0  0  0  0
  9 10  2  0  0  0  0
  9 11  4  0  0  0  0
 11 12  1  0  0  0  0
 12 13  1  0  0  0  0
  7 14  1  0  0  0  0
 14 15  1  0  0  0  0
 15 16  2  0  0  0  0
 15 17  1  0  0  0  0
 17 18  1  0  0  0  0
 15 19  2  0  0  0  0
 19 20  1  0  0  0  0
  1 21  1  0  0  0  0
  1 22  1  0  0  0  0
  1 23  1  0  0  0  0
  2 24  1  0  0  0  0
  2 25  1  0  0  0  0
  6 26  1  0  0  0  0
  6 27  1  0  0  0  0
 12 28  1  0  0  0  0
 12 29  1  0  0  0  0
 13 30  1  0  0  0  0
 13 31  1  0  0  0  0
 13 32  1  0  0  0  0
 18 33  1  0  0  0  0
 18 34  1  0  0  0  0
 18 35  1  0  0  0  0
 20 36  1  0  0  0  0
 20 37  1  0  0  0  0
 20 38  1  0  0  0  0
M  END
