 xtb: 6.7.1 (edcfbbe)
          04092505213D

 41 40  0     0  0            999 V2000
    2.3345    1.5173   -2.4636 C   0  0  0  0  0  0  0  0  0  0  0  0
    2.4745    0.2613   -1.6316 C   0  0  0  0  0  0  0  0  0  0  0  0
    2.3087    0.6410   -0.2403 O   0  0  0  0  0  0  0  0  0  0  0  0
    2.1407   -0.3938    0.9329 P   0  0  0  0  0  0  0  0  0  0  0  0
    2.2789    0.4515    2.6895 S   0  0  0  0  0  0  0  0  0  0  0  0
    3.2513   -1.4754    0.5878 O   0  0  0  0  0  0  0  0  0  0  0  0
    3.5100   -2.5840    1.4768 C   0  0  0  0  0  0  0  0  0  0  0  0
    4.8375   -3.1965    1.0805 C   0  0  0  0  0  0  0  0  0  0  0  0
    0.3343   -1.4711    0.6021 S   0  0  0  0  0  0  0  0  0  0  0  0
   -0.7430   -0.3514    1.5334 C   0  0  0  0  0  0  0  0  0  0  0  0
   -0.9140    1.2851    0.7761 S   0  0  0  0  0  0  0  0  0  0  0  0
   -1.9519    0.7349   -1.0000 P   0  0  0  0  0  0  0  0  0  0  0  0
   -1.0257   -0.1311   -2.4853 S   0  0  0  0  0  0  0  0  0  0  0  0
   -2.5057    2.1304   -1.4990 O   0  0  0  0  0  0  0  0  0  0  0  0
   -3.0387    3.2047   -0.6909 C   0  0  0  0  0  0  0  0  0  0  0  0
   -4.2595    2.7875    0.1008 C   0  0  0  0  0  0  0  0  0  0  0  0
   -3.1913   -0.0926   -0.4253 O   0  0  0  0  0  0  0  0  0  0  0  0
   -3.6365   -1.3570   -0.9545 C   0  0  0  0  0  0  0  0  0  0  0  0
   -3.1878   -2.5113   -0.0808 C   0  0  0  0  0  0  0  0  0  0  0  0
    1.3315    1.9248   -2.3590 H   0  0  0  0  0  0  0  0  0  0  0  0
    3.0544    2.2635   -2.1400 H   0  0  0  0  0  0  0  0  0  0  0  0
    2.5044    1.2704   -3.5064 H   0  0  0  0  0  0  0  0  0  0  0  0
    3.4615   -0.1902   -1.7405 H   0  0  0  0  0  0  0  0  0  0  0  0
    1.7061   -0.4725   -1.8935 H   0  0  0  0  0  0  0  0  0  0  0  0
    3.5305   -2.2064    2.5043 H   0  0  0  0  0  0  0  0  0  0  0  0
    2.6911   -3.3008    1.3733 H   0  0  0  0  0  0  0  0  0  0  0  0
    5.0484   -4.0382    1.7318 H   0  0  0  0  0  0  0  0  0  0  0  0
    4.7962   -3.5394    0.0507 H   0  0  0  0  0  0  0  0  0  0  0  0
    5.6315   -2.4611    1.1761 H   0  0  0  0  0  0  0  0  0  0  0  0
   -0.3050   -0.1741    2.5167 H   0  0  0  0  0  0  0  0  0  0  0  0
   -1.7166   -0.8274    1.6098 H   0  0  0  0  0  0  0  0  0  0  0  0
   -2.2460    3.5639   -0.0296 H   0  0  0  0  0  0  0  0  0  0  0  0
   -3.2794    3.9735   -1.4272 H   0  0  0  0  0  0  0  0  0  0  0  0
   -3.9913    2.0344    0.8384 H   0  0  0  0  0  0  0  0  0  0  0  0
   -4.6630    3.6561    0.6121 H   0  0  0  0  0  0  0  0  0  0  0  0
   -5.0164    2.3786   -0.5635 H   0  0  0  0  0  0  0  0  0  0  0  0
   -4.7246   -1.2787   -0.9794 H   0  0  0  0  0  0  0  0  0  0  0  0
   -3.2514   -1.4718   -1.9725 H   0  0  0  0  0  0  0  0  0  0  0  0
   -3.5391   -2.3769    0.9389 H   0  0  0  0  0  0  0  0  0  0  0  0
   -3.6033   -3.4320   -0.4777 H   0  0  0  0  0  0  0  0  0  0  0  0
   -2.1013   -2.5902   -0.0832 H   0  0  0  0  0  0  0  0  0  0  0  0
  1  2  1  0  0  0  0
  2  3  1  0  0  0  0
  3  4  2  0  0  0  0
  4  5  2  0  0  0  0
  4  6  2  0  0  0  0
  6  7  1  0  0  0  0
  7  8  1  0  0  0  0
  4  9  1  0  0  0  0
  9 10  1  0  0  0  0
 10 11  1  0  0  0  0
 11 12  1  0  0  0  0
 12 13  2  0  0  0  0
 12 14  2  0  0  0  0
 14 15  1  0  0  0  0
 15 16  1  0  0  0  0
 12 17  2  0  0  0  0
 17 18  1  0  0  0  0
 18 19  1  0  0  0  0
  1 20  1  0  0  0  0
  1 21  1  0  0  0  0
  1 22  1  0  0  0  0
  2 23  1  0  0  0  0
  2 24  1  0  0  0  0
  7 25  1  0  0  0  0
  7 26  1  0  0  0  0
  8 27  1  0  0  0  0
  8 28  1  0  0  0  0
  8 29  1  0  0  0  0
 10 30  1  0  0  0  0
 10 31  1  0  0  0  0
 15 32  1  0  0  0  0
 15 33  1  0  0  0  0
 16 34  1  0  0  0  0
 16 35  1  0  0  0  0
 16 36  1  0  0  0  0
 18 37  1  0  0  0  0
 18 38  1  0  0  0  0
 19 39  1  0  0  0  0
 19 40  1  0  0  0  0
 19 41  1  0  0  0  0
M  END
