 xtb: 6.7.1 (edcfbbe)
          04092505213D

 41 40  0     0  0            999 V2000
    4.3692   -2.4293   -0.3332 C   0  0  0  0  0  0  0  0  0  0  0  0
    4.5150   -0.9698    0.0483 C   0  0  0  0  0  0  0  0  0  0  0  0
    3.8286   -0.1299   -0.9188 O   0  0  0  0  0  0  0  0  0  0  0  0
    2.4856    0.6293   -0.6086 P   0  0  0  0  0  0  0  0  0  0  0  0
    1.8860    1.6005   -2.1984 S   0  0  0  0  0  0  0  0  0  0  0  0
    2.9025    1.4957    0.6558 O   0  0  0  0  0  0  0  0  0  0  0  0
    1.9690    2.2385    1.4670 C   0  0  0  0  0  0  0  0  0  0  0  0
    1.8373    1.5748    2.8246 C   0  0  0  0  0  0  0  0  0  0  0  0
    1.1348   -0.8128    0.1826 S   0  0  0  0  0  0  0  0  0  0  0  0
    0.1455   -1.0938   -1.3223 C   0  0  0  0  0  0  0  0  0  0  0  0
   -1.5013   -1.7028   -0.9357 S   0  0  0  0  0  0  0  0  0  0  0  0
   -2.3775    0.0509   -0.0756 P   0  0  0  0  0  0  0  0  0  0  0  0
   -1.3490    1.7048   -0.3084 S   0  0  0  0  0  0  0  0  0  0  0  0
   -2.6896   -0.3449    1.4313 O   0  0  0  0  0  0  0  0  0  0  0  0
   -1.6516   -0.3989    2.4307 C   0  0  0  0  0  0  0  0  0  0  0  0
   -2.3187   -0.5597    3.7811 C   0  0  0  0  0  0  0  0  0  0  0  0
   -3.8171    0.1728   -0.6944 O   0  0  0  0  0  0  0  0  0  0  0  0
   -4.9592   -0.6436   -0.3269 C   0  0  0  0  0  0  0  0  0  0  0  0
   -4.7442   -2.1108   -0.6279 C   0  0  0  0  0  0  0  0  0  0  0  0
    4.9827   -3.0307    0.3300 H   0  0  0  0  0  0  0  0  0  0  0  0
    3.3334   -2.7466   -0.2422 H   0  0  0  0  0  0  0  0  0  0  0  0
    4.6967   -2.5791   -1.3583 H   0  0  0  0  0  0  0  0  0  0  0  0
    5.5564   -0.6481    0.0045 H   0  0  0  0  0  0  0  0  0  0  0  0
    4.1110   -0.7748    1.0437 H   0  0  0  0  0  0  0  0  0  0  0  0
    2.3912    3.2415    1.5519 H   0  0  0  0  0  0  0  0  0  0  0  0
    1.0056    2.3037    0.9522 H   0  0  0  0  0  0  0  0  0  0  0  0
    1.4557    0.5620    2.7133 H   0  0  0  0  0  0  0  0  0  0  0  0
    2.8068    1.5364    3.3128 H   0  0  0  0  0  0  0  0  0  0  0  0
    1.1506    2.1521    3.4351 H   0  0  0  0  0  0  0  0  0  0  0  0
    0.6173   -1.8626   -1.9297 H   0  0  0  0  0  0  0  0  0  0  0  0
    0.0832   -0.1459   -1.8641 H   0  0  0  0  0  0  0  0  0  0  0  0
   -0.9942   -1.2435    2.2028 H   0  0  0  0  0  0  0  0  0  0  0  0
   -1.0726    0.5281    2.3744 H   0  0  0  0  0  0  0  0  0  0  0  0
   -2.9723    0.2852    3.9780 H   0  0  0  0  0  0  0  0  0  0  0  0
   -2.9060   -1.4729    3.8004 H   0  0  0  0  0  0  0  0  0  0  0  0
   -1.5546   -0.6083    4.5497 H   0  0  0  0  0  0  0  0  0  0  0  0
   -5.1616   -0.4850    0.7334 H   0  0  0  0  0  0  0  0  0  0  0  0
   -5.7658   -0.2219   -0.9285 H   0  0  0  0  0  0  0  0  0  0  0  0
   -5.6583   -2.6541   -0.4093 H   0  0  0  0  0  0  0  0  0  0  0  0
   -4.4855   -2.2514   -1.6742 H   0  0  0  0  0  0  0  0  0  0  0  0
   -3.9389   -2.5101   -0.0139 H   0  0  0  0  0  0  0  0  0  0  0  0
  1  2  1  0  0  0  0
  2  3  1  0  0  0  0
  3  4  2  0  0  0  0
  4  5  2  0  0  0  0
  4  6  2  0  0  0  0
  6  7  1  0  0  0  0
  7  8  1  0  0  0  0
  4  9  1  0  0  0  0
  9 10  1  0  0  0  0
 10 11  1  0  0  0  0
 11 12  1  0  0  0  0
 12 13  2  0  0  0  0
 12 14  2  0  0  0  0
 14 15  1  0  0  0  0
 15 16  1  0  0  0  0
 12 17  2  0  0  0  0
 17 18  1  0  0  0  0
 18 19  1  0  0  0  0
  1 20  1  0  0  0  0
  1 21  1  0  0  0  0
  1 22  1  0  0  0  0
  2 23  1  0  0  0  0
  2 24  1  0  0  0  0
  7 25  1  0  0  0  0
  7 26  1  0  0  0  0
  8 27  1  0  0  0  0
  8 28  1  0  0  0  0
  8 29  1  0  0  0  0
 10 30  1  0  0  0  0
 10 31  1  0  0  0  0
 15 32  1  0  0  0  0
 15 33  1  0  0  0  0
 16 34  1  0  0  0  0
 16 35  1  0  0  0  0
 16 36  1  0  0  0  0
 18 37  1  0  0  0  0
 18 38  1  0  0  0  0
 19 39  1  0  0  0  0
 19 40  1  0  0  0  0
 19 41  1  0  0  0  0
M  END
