 xtb: 6.7.1 (edcfbbe)
          04092505203D

 41 40  0     0  0            999 V2000
    4.3042    0.4295   -2.0317 C   0  0  0  0  0  0  0  0  0  0  0  0
    4.5647    0.6127   -0.5508 C   0  0  0  0  0  0  0  0  0  0  0  0
    3.6152   -0.0881    0.2727 O   0  0  0  0  0  0  0  0  0  0  0  0
    2.0611    0.2556    0.2774 P   0  0  0  0  0  0  0  0  0  0  0  0
    1.6287    2.1577    0.1777 S   0  0  0  0  0  0  0  0  0  0  0  0
    1.5904   -0.3926    1.6351 O   0  0  0  0  0  0  0  0  0  0  0  0
    1.9316   -1.7489    2.0161 C   0  0  0  0  0  0  0  0  0  0  0  0
    3.0874   -1.7500    2.9936 C   0  0  0  0  0  0  0  0  0  0  0  0
    1.2703   -0.9912   -1.2707 S   0  0  0  0  0  0  0  0  0  0  0  0
    0.1612    0.1937   -2.0868 C   0  0  0  0  0  0  0  0  0  0  0  0
   -1.5839   -0.2985   -2.0947 S   0  0  0  0  0  0  0  0  0  0  0  0
   -2.0742   -0.3087   -0.0485 P   0  0  0  0  0  0  0  0  0  0  0  0
   -1.4306   -1.7186    1.1393 S   0  0  0  0  0  0  0  0  0  0  0  0
   -3.6587   -0.3363   -0.0591 O   0  0  0  0  0  0  0  0  0  0  0  0
   -4.4741    0.5966   -0.8104 C   0  0  0  0  0  0  0  0  0  0  0  0
   -5.0567   -0.0794   -2.0350 C   0  0  0  0  0  0  0  0  0  0  0  0
   -1.6086    1.1781    0.3281 O   0  0  0  0  0  0  0  0  0  0  0  0
   -1.4336    1.5876    1.6953 C   0  0  0  0  0  0  0  0  0  0  0  0
   -2.7543    1.6761    2.4301 C   0  0  0  0  0  0  0  0  0  0  0  0
    5.1237    0.8666   -2.5933 H   0  0  0  0  0  0  0  0  0  0  0  0
    4.2219   -0.6266   -2.2761 H   0  0  0  0  0  0  0  0  0  0  0  0
    3.3793    0.9318   -2.3115 H   0  0  0  0  0  0  0  0  0  0  0  0
    4.5305    1.6733   -0.2838 H   0  0  0  0  0  0  0  0  0  0  0  0
    5.5250    0.1868   -0.2566 H   0  0  0  0  0  0  0  0  0  0  0  0
    1.0188   -2.1475    2.4645 H   0  0  0  0  0  0  0  0  0  0  0  0
    2.1660   -2.3224    1.1153 H   0  0  0  0  0  0  0  0  0  0  0  0
    2.8434   -1.1362    3.8563 H   0  0  0  0  0  0  0  0  0  0  0  0
    3.2711   -2.7691    3.3187 H   0  0  0  0  0  0  0  0  0  0  0  0
    3.9826   -1.3551    2.5206 H   0  0  0  0  0  0  0  0  0  0  0  0
    0.4363    0.2394   -3.1380 H   0  0  0  0  0  0  0  0  0  0  0  0
    0.2693    1.1689   -1.6041 H   0  0  0  0  0  0  0  0  0  0  0  0
   -5.2601    0.8979   -0.1154 H   0  0  0  0  0  0  0  0  0  0  0  0
   -3.8685    1.4647   -1.0832 H   0  0  0  0  0  0  0  0  0  0  0  0
   -4.2646   -0.3746   -2.7197 H   0  0  0  0  0  0  0  0  0  0  0  0
   -5.6121   -0.9650   -1.7394 H   0  0  0  0  0  0  0  0  0  0  0  0
   -5.7243    0.6128   -2.5383 H   0  0  0  0  0  0  0  0  0  0  0  0
   -0.7605    0.8767    2.1873 H   0  0  0  0  0  0  0  0  0  0  0  0
   -0.9392    2.5578    1.6182 H   0  0  0  0  0  0  0  0  0  0  0  0
   -2.5774    2.0387    3.4377 H   0  0  0  0  0  0  0  0  0  0  0  0
   -3.4276    2.3567    1.9153 H   0  0  0  0  0  0  0  0  0  0  0  0
   -3.2131    0.6889    2.4842 H   0  0  0  0  0  0  0  0  0  0  0  0
  1  2  1  0  0  0  0
  2  3  1  0  0  0  0
  3  4  2  0  0  0  0
  4  5  2  0  0  0  0
  4  6  2  0  0  0  0
  6  7  1  0  0  0  0
  7  8  1  0  0  0  0
  4  9  1  0  0  0  0
  9 10  1  0  0  0  0
 10 11  1  0  0  0  0
 11 12  1  0  0  0  0
 12 13  2  0  0  0  0
 12 14  2  0  0  0  0
 14 15  1  0  0  0  0
 15 16  1  0  0  0  0
 12 17  1  0  0  0  0
 17 18  1  0  0  0  0
 18 19  1  0  0  0  0
  1 20  1  0  0  0  0
  1 21  1  0  0  0  0
  1 22  1  0  0  0  0
  2 23  1  0  0  0  0
  2 24  1  0  0  0  0
  7 25  1  0  0  0  0
  7 26  1  0  0  0  0
  8 27  1  0  0  0  0
  8 28  1  0  0  0  0
  8 29  1  0  0  0  0
 10 30  1  0  0  0  0
 10 31  1  0  0  0  0
 15 32  1  0  0  0  0
 15 33  1  0  0  0  0
 16 34  1  0  0  0  0
 16 35  1  0  0  0  0
 16 36  1  0  0  0  0
 18 37  1  0  0  0  0
 18 38  1  0  0  0  0
 19 39  1  0  0  0  0
 19 40  1  0  0  0  0
 19 41  1  0  0  0  0
M  END
