 xtb: 6.7.1 (edcfbbe)
          04032519423D

 20 20  0     0  0            999 V2000
    0.8481    1.3993   -0.6074 C   0  0  0  0  0  0  0  0  0  0  0  0
    1.5991    0.1860   -0.0414 C   0  0  0  0  0  0  0  0  0  0  0  0
    2.5803    0.1197   -0.5232 H   0  0  0  0  0  0  0  0  0  0  0  0
    0.7901   -1.1000   -0.3338 C   0  0  0  0  0  0  0  0  0  0  0  0
    1.2481   -1.9267    0.2315 H   0  0  0  0  0  0  0  0  0  0  0  0
   -0.6640   -0.9261    0.1460 C   0  0  0  0  0  0  0  0  0  0  0  0
   -1.2620   -1.7635   -0.2355 H   0  0  0  0  0  0  0  0  0  0  0  0
   -1.2537    0.3690   -0.4507 C   0  0  0  0  0  0  0  0  0  0  0  0
   -1.2827    0.2696   -1.5476 H   0  0  0  0  0  0  0  0  0  0  0  0
   -0.4645    1.4816   -0.0877 O   0  0  0  0  0  0  0  0  0  0  0  0
   -2.5459    0.5902   -0.0289 O   0  0  0  0  0  0  0  0  0  0  0  0
   -0.7570   -0.8177    1.5462 O   0  0  0  0  0  0  0  0  0  0  0  0
    0.7371   -1.3966   -1.7072 O   0  0  0  0  0  0  0  0  0  0  0  0
    1.8589    0.3171    1.3327 O   0  0  0  0  0  0  0  0  0  0  0  0
    0.8130    1.3278   -1.7022 H   0  0  0  0  0  0  0  0  0  0  0  0
    1.3395    2.3242   -0.3048 H   0  0  0  0  0  0  0  0  0  0  0  0
   -2.5455    0.6575    0.9411 H   0  0  0  0  0  0  0  0  0  0  0  0
   -0.6411   -1.6863    1.9557 H   0  0  0  0  0  0  0  0  0  0  0  0
    1.6094   -1.6823   -2.0158 H   0  0  0  0  0  0  0  0  0  0  0  0
    1.0108    0.4444    1.7908 H   0  0  0  0  0  0  0  0  0  0  0  0
  1  2  1  0  0  0  0
  2  3  1  0  0  0  0
  2  4  1  0  0  0  0
  4  5  1  0  0  0  0
  4  6  1  0  0  0  0
  6  7  1  0  0  0  0
  6  8  1  0  0  0  0
  8  9  1  0  0  0  0
  1 10  1  0  0  0  0
  8 10  1  0  0  0  0
  8 11  1  0  0  0  0
  6 12  1  0  0  0  0
  4 13  1  0  0  0  0
  2 14  1  0  0  0  0
  1 15  1  0  0  0  0
  1 16  1  0  0  0  0
 11 17  1  0  0  0  0
 12 18  1  0  0  0  0
 13 19  1  0  0  0  0
 14 20  1  0  0  0  0
M  END
