 xtb: 6.7.1 (edcfbbe)
          04092507313D

 38 37  0     0  0            999 V2000
    3.3269   -3.8647    0.1888 C   0  0  0  0  0  0  0  0  0  0  0  0
    3.7925   -2.8966   -0.8867 C   0  0  0  0  0  0  0  0  0  0  0  0
    2.6667   -2.2861   -1.5523 O   0  0  0  0  0  0  0  0  0  0  0  0
    2.1323   -1.2076   -1.0303 C   0  0  0  0  0  0  0  0  0  0  0  0
    2.5380   -0.6474   -0.0302 O   0  0  0  0  0  0  0  0  0  0  0  0
    0.9195   -0.7499   -1.8068 C   0  0  0  0  0  0  0  0  0  0  0  0
    0.5439    0.6914   -1.4583 C   0  0  0  0  0  0  0  0  0  0  0  0
    1.0272    1.4122   -2.1176 H   0  0  0  0  0  0  0  0  0  0  0  0
    0.8530    1.0488   -0.0185 C   0  0  0  0  0  0  0  0  0  0  0  0
    0.1845    0.5857    0.8959 O   0  0  0  0  0  0  0  0  0  0  0  0
    1.7488    1.9790    0.1073 O   0  0  0  0  0  0  0  0  0  0  0  0
    2.0950    2.4144    1.4407 C   0  0  0  0  0  0  0  0  0  0  0  0
    2.8535    3.7209    1.3237 C   0  0  0  0  0  0  0  0  0  0  0  0
   -1.2569    0.9509   -1.6167 S   0  0  0  0  0  0  0  0  0  0  0  0
   -2.0483    0.1865    0.2073 P   0  0  0  0  0  0  0  0  0  0  0  0
   -2.4309    1.2288    1.8346 S   0  0  0  0  0  0  0  0  0  0  0  0
   -3.4180   -0.0545   -0.6101 O   0  0  0  0  0  0  0  0  0  0  0  0
   -4.6420   -0.4231    0.0260 C   0  0  0  0  0  0  0  0  0  0  0  0
   -1.6253   -1.3498    0.4297 O   0  0  0  0  0  0  0  0  0  0  0  0
   -0.9233   -1.8421    1.5678 C   0  0  0  0  0  0  0  0  0  0  0  0
    2.8044   -3.3287    0.9785 H   0  0  0  0  0  0  0  0  0  0  0  0
    2.6579   -4.6064   -0.2386 H   0  0  0  0  0  0  0  0  0  0  0  0
    4.1887   -4.3654    0.6173 H   0  0  0  0  0  0  0  0  0  0  0  0
    4.3272   -3.4138   -1.6830 H   0  0  0  0  0  0  0  0  0  0  0  0
    4.4143   -2.1067   -0.4568 H   0  0  0  0  0  0  0  0  0  0  0  0
    0.1023   -1.4259   -1.5354 H   0  0  0  0  0  0  0  0  0  0  0  0
    1.0916   -0.8612   -2.8761 H   0  0  0  0  0  0  0  0  0  0  0  0
    1.1723    2.5197    2.0206 H   0  0  0  0  0  0  0  0  0  0  0  0
    2.7048    1.6251    1.8900 H   0  0  0  0  0  0  0  0  0  0  0  0
    2.2265    4.4779    0.8621 H   0  0  0  0  0  0  0  0  0  0  0  0
    3.1432    4.0533    2.3147 H   0  0  0  0  0  0  0  0  0  0  0  0
    3.7422    3.5797    0.7165 H   0  0  0  0  0  0  0  0  0  0  0  0
   -5.4316   -0.1612   -0.6740 H   0  0  0  0  0  0  0  0  0  0  0  0
   -4.7632    0.1300    0.9605 H   0  0  0  0  0  0  0  0  0  0  0  0
   -4.6465   -1.4940    0.2271 H   0  0  0  0  0  0  0  0  0  0  0  0
   -1.1443   -1.2269    2.4416 H   0  0  0  0  0  0  0  0  0  0  0  0
    0.1503   -1.8197    1.3821 H   0  0  0  0  0  0  0  0  0  0  0  0
   -1.2717   -2.8618    1.7151 H   0  0  0  0  0  0  0  0  0  0  0  0
  1  2  1  0  0  0  0
  2  3  1  0  0  0  0
  3  4  4  0  0  0  0
  4  5  2  0  0  0  0
  4  6  1  0  0  0  0
  6  7  1  0  0  0  0
  7  8  1  0  0  0  0
  7  9  1  0  0  0  0
  9 10  2  0  0  0  0
  9 11  4  0  0  0  0
 11 12  1  0  0  0  0
 12 13  1  0  0  0  0
  7 14  1  0  0  0  0
 14 15  1  0  0  0  0
 15 16  2  0  0  0  0
 15 17  1  0  0  0  0
 17 18  1  0  0  0  0
 15 19  1  0  0  0  0
 19 20  1  0  0  0  0
  1 21  1  0  0  0  0
  1 22  1  0  0  0  0
  1 23  1  0  0  0  0
  2 24  1  0  0  0  0
  2 25  1  0  0  0  0
  6 26  1  0  0  0  0
  6 27  1  0  0  0  0
 12 28  1  0  0  0  0
 12 29  1  0  0  0  0
 13 30  1  0  0  0  0
 13 31  1  0  0  0  0
 13 32  1  0  0  0  0
 18 33  1  0  0  0  0
 18 34  1  0  0  0  0
 18 35  1  0  0  0  0
 20 36  1  0  0  0  0
 20 37  1  0  0  0  0
 20 38  1  0  0  0  0
M  END
