 xtb: 6.7.1 (edcfbbe)
          04092505203D

 41 40  0     0  0            999 V2000
    4.2478   -0.7670   -2.3889 C   0  0  0  0  0  0  0  0  0  0  0  0
    4.4662   -1.2726   -0.9775 C   0  0  0  0  0  0  0  0  0  0  0  0
    3.2268   -1.5020   -0.2854 O   0  0  0  0  0  0  0  0  0  0  0  0
    2.2599   -0.3168    0.1435 P   0  0  0  0  0  0  0  0  0  0  0  0
    3.1546    1.3118    0.7780 S   0  0  0  0  0  0  0  0  0  0  0  0
    1.3072   -1.0388    1.1844 O   0  0  0  0  0  0  0  0  0  0  0  0
    1.5789   -1.0170    2.6031 C   0  0  0  0  0  0  0  0  0  0  0  0
    2.8187   -1.8133    2.9512 C   0  0  0  0  0  0  0  0  0  0  0  0
    0.9283   -0.1090   -1.4859 S   0  0  0  0  0  0  0  0  0  0  0  0
    0.2508    1.4948   -0.9763 C   0  0  0  0  0  0  0  0  0  0  0  0
   -0.7900    1.3887    0.4949 S   0  0  0  0  0  0  0  0  0  0  0  0
   -2.3723    0.2859   -0.4328 P   0  0  0  0  0  0  0  0  0  0  0  0
   -2.7065    0.6992   -2.3136 S   0  0  0  0  0  0  0  0  0  0  0  0
   -3.5607    0.4486    0.6089 O   0  0  0  0  0  0  0  0  0  0  0  0
   -4.0293    1.6993    1.1487 C   0  0  0  0  0  0  0  0  0  0  0  0
   -4.3914    2.7041    0.0757 C   0  0  0  0  0  0  0  0  0  0  0  0
   -2.0190   -1.2429   -0.2839 O   0  0  0  0  0  0  0  0  0  0  0  0
   -1.8300   -1.9027    0.9898 C   0  0  0  0  0  0  0  0  0  0  0  0
   -3.0627   -2.7037    1.3552 C   0  0  0  0  0  0  0  0  0  0  0  0
    3.5732   -1.4278   -2.9278 H   0  0  0  0  0  0  0  0  0  0  0  0
    3.8120    0.2312   -2.3647 H   0  0  0  0  0  0  0  0  0  0  0  0
    5.2002   -0.7224   -2.9073 H   0  0  0  0  0  0  0  0  0  0  0  0
    5.0563   -0.5533   -0.4002 H   0  0  0  0  0  0  0  0  0  0  0  0
    4.9554   -2.2475   -0.9697 H   0  0  0  0  0  0  0  0  0  0  0  0
    1.6856    0.0262    2.9171 H   0  0  0  0  0  0  0  0  0  0  0  0
    0.6826   -1.4494    3.0495 H   0  0  0  0  0  0  0  0  0  0  0  0
    2.7432   -2.8214    2.5523 H   0  0  0  0  0  0  0  0  0  0  0  0
    3.6992   -1.3321    2.5271 H   0  0  0  0  0  0  0  0  0  0  0  0
    2.9270   -1.8568    4.0304 H   0  0  0  0  0  0  0  0  0  0  0  0
   -0.3450    1.8574   -1.8143 H   0  0  0  0  0  0  0  0  0  0  0  0
    1.0662    2.1771   -0.7359 H   0  0  0  0  0  0  0  0  0  0  0  0
   -4.9030    1.4129    1.7369 H   0  0  0  0  0  0  0  0  0  0  0  0
   -3.2521    2.0992    1.8061 H   0  0  0  0  0  0  0  0  0  0  0  0
   -5.1083    2.2749   -0.6202 H   0  0  0  0  0  0  0  0  0  0  0  0
   -4.8219    3.5863    0.5385 H   0  0  0  0  0  0  0  0  0  0  0  0
   -3.5032    2.9942   -0.4837 H   0  0  0  0  0  0  0  0  0  0  0  0
   -0.9594   -2.5456    0.8436 H   0  0  0  0  0  0  0  0  0  0  0  0
   -1.6056   -1.1489    1.7500 H   0  0  0  0  0  0  0  0  0  0  0  0
   -2.8822   -3.2343    2.2848 H   0  0  0  0  0  0  0  0  0  0  0  0
   -3.9163   -2.0418    1.4764 H   0  0  0  0  0  0  0  0  0  0  0  0
   -3.2851   -3.4198    0.5691 H   0  0  0  0  0  0  0  0  0  0  0  0
  1  2  1  0  0  0  0
  2  3  1  0  0  0  0
  3  4  2  0  0  0  0
  4  5  2  0  0  0  0
  4  6  2  0  0  0  0
  6  7  1  0  0  0  0
  7  8  1  0  0  0  0
  4  9  1  0  0  0  0
  9 10  1  0  0  0  0
 10 11  1  0  0  0  0
 11 12  1  0  0  0  0
 12 13  2  0  0  0  0
 12 14  2  0  0  0  0
 14 15  1  0  0  0  0
 15 16  1  0  0  0  0
 12 17  2  0  0  0  0
 17 18  1  0  0  0  0
 18 19  1  0  0  0  0
  1 20  1  0  0  0  0
  1 21  1  0  0  0  0
  1 22  1  0  0  0  0
  2 23  1  0  0  0  0
  2 24  1  0  0  0  0
  7 25  1  0  0  0  0
  7 26  1  0  0  0  0
  8 27  1  0  0  0  0
  8 28  1  0  0  0  0
  8 29  1  0  0  0  0
 10 30  1  0  0  0  0
 10 31  1  0  0  0  0
 15 32  1  0  0  0  0
 15 33  1  0  0  0  0
 16 34  1  0  0  0  0
 16 35  1  0  0  0  0
 16 36  1  0  0  0  0
 18 37  1  0  0  0  0
 18 38  1  0  0  0  0
 19 39  1  0  0  0  0
 19 40  1  0  0  0  0
 19 41  1  0  0  0  0
M  END
