 xtb: 6.7.1 (edcfbbe)
          04092505213D

 41 40  0     0  0            999 V2000
    3.0483    0.2758   -3.3156 C   0  0  0  0  0  0  0  0  0  0  0  0
    3.4273    0.7497   -1.9269 C   0  0  0  0  0  0  0  0  0  0  0  0
    2.9940   -0.2354   -0.9620 O   0  0  0  0  0  0  0  0  0  0  0  0
    2.1593    0.0860    0.3385 P   0  0  0  0  0  0  0  0  0  0  0  0
    1.2044    1.8081    0.3313 S   0  0  0  0  0  0  0  0  0  0  0  0
    3.2772    0.0380    1.4697 O   0  0  0  0  0  0  0  0  0  0  0  0
    3.0597    0.5435    2.7973 C   0  0  0  0  0  0  0  0  0  0  0  0
    2.0365   -0.2789    3.5542 C   0  0  0  0  0  0  0  0  0  0  0  0
    1.2104   -1.7837    0.5816 S   0  0  0  0  0  0  0  0  0  0  0  0
    0.4560   -1.9837   -1.0677 C   0  0  0  0  0  0  0  0  0  0  0  0
   -0.2970   -0.4793   -1.7424 S   0  0  0  0  0  0  0  0  0  0  0  0
   -1.8706   -0.1752   -0.3604 P   0  0  0  0  0  0  0  0  0  0  0  0
   -1.5846   -0.0891    1.5814 S   0  0  0  0  0  0  0  0  0  0  0  0
   -2.7739   -1.3881   -0.8286 O   0  0  0  0  0  0  0  0  0  0  0  0
   -3.8548   -1.9027   -0.0248 C   0  0  0  0  0  0  0  0  0  0  0  0
   -5.0249   -0.9430    0.0158 C   0  0  0  0  0  0  0  0  0  0  0  0
   -2.5933    1.0810   -1.0057 O   0  0  0  0  0  0  0  0  0  0  0  0
   -2.3571    2.4511   -0.6225 C   0  0  0  0  0  0  0  0  0  0  0  0
   -3.4166    2.9179    0.3567 C   0  0  0  0  0  0  0  0  0  0  0  0
    3.4063    0.9953   -4.0446 H   0  0  0  0  0  0  0  0  0  0  0  0
    3.4989   -0.6921   -3.5150 H   0  0  0  0  0  0  0  0  0  0  0  0
    1.9668    0.1892   -3.3991 H   0  0  0  0  0  0  0  0  0  0  0  0
    2.9541    1.7089   -1.6913 H   0  0  0  0  0  0  0  0  0  0  0  0
    4.5092    0.8400   -1.8135 H   0  0  0  0  0  0  0  0  0  0  0  0
    4.0449    0.4920    3.2625 H   0  0  0  0  0  0  0  0  0  0  0  0
    2.7354    1.5868    2.7223 H   0  0  0  0  0  0  0  0  0  0  0  0
    2.3149   -1.3299    3.5471 H   0  0  0  0  0  0  0  0  0  0  0  0
    1.9742    0.0730    4.5788 H   0  0  0  0  0  0  0  0  0  0  0  0
    1.0540   -0.1760    3.0907 H   0  0  0  0  0  0  0  0  0  0  0  0
   -0.2969   -2.7624   -0.9650 H   0  0  0  0  0  0  0  0  0  0  0  0
    1.2278   -2.2732   -1.7775 H   0  0  0  0  0  0  0  0  0  0  0  0
   -4.1177   -2.8434   -0.5105 H   0  0  0  0  0  0  0  0  0  0  0  0
   -3.4759   -2.0936    0.9846 H   0  0  0  0  0  0  0  0  0  0  0  0
   -5.3318   -0.6830   -0.9938 H   0  0  0  0  0  0  0  0  0  0  0  0
   -5.8544   -1.4071    0.5400 H   0  0  0  0  0  0  0  0  0  0  0  0
   -4.7368   -0.0341    0.5416 H   0  0  0  0  0  0  0  0  0  0  0  0
   -1.3575    2.5486   -0.1903 H   0  0  0  0  0  0  0  0  0  0  0  0
   -2.4019    3.0113   -1.5581 H   0  0  0  0  0  0  0  0  0  0  0  0
   -3.3412    2.3551    1.2851 H   0  0  0  0  0  0  0  0  0  0  0  0
   -3.2606    3.9701    0.5716 H   0  0  0  0  0  0  0  0  0  0  0  0
   -4.4072    2.7781   -0.0675 H   0  0  0  0  0  0  0  0  0  0  0  0
  1  2  1  0  0  0  0
  2  3  1  0  0  0  0
  3  4  2  0  0  0  0
  4  5  2  0  0  0  0
  4  6  2  0  0  0  0
  6  7  1  0  0  0  0
  7  8  1  0  0  0  0
  4  9  1  0  0  0  0
  9 10  1  0  0  0  0
 10 11  1  0  0  0  0
 11 12  1  0  0  0  0
 12 13  2  0  0  0  0
 12 14  2  0  0  0  0
 14 15  1  0  0  0  0
 15 16  1  0  0  0  0
 12 17  2  0  0  0  0
 17 18  1  0  0  0  0
 18 19  1  0  0  0  0
  1 20  1  0  0  0  0
  1 21  1  0  0  0  0
  1 22  1  0  0  0  0
  2 23  1  0  0  0  0
  2 24  1  0  0  0  0
  7 25  1  0  0  0  0
  7 26  1  0  0  0  0
  8 27  1  0  0  0  0
  8 28  1  0  0  0  0
  8 29  1  0  0  0  0
 10 30  1  0  0  0  0
 10 31  1  0  0  0  0
 15 32  1  0  0  0  0
 15 33  1  0  0  0  0
 16 34  1  0  0  0  0
 16 35  1  0  0  0  0
 16 36  1  0  0  0  0
 18 37  1  0  0  0  0
 18 38  1  0  0  0  0
 19 39  1  0  0  0  0
 19 40  1  0  0  0  0
 19 41  1  0  0  0  0
M  END
