 xtb: 6.7.1 (edcfbbe)
          04092505213D

 41 40  0     0  0            999 V2000
    3.2152    2.2635   -1.2592 C   0  0  0  0  0  0  0  0  0  0  0  0
    3.7788    1.2660   -0.2669 C   0  0  0  0  0  0  0  0  0  0  0  0
    3.1838   -0.0365   -0.4550 O   0  0  0  0  0  0  0  0  0  0  0  0
    2.1767   -0.7079    0.5603 P   0  0  0  0  0  0  0  0  0  0  0  0
    1.6290    0.4354    2.0598 S   0  0  0  0  0  0  0  0  0  0  0  0
    3.0086   -2.0049    0.9450 O   0  0  0  0  0  0  0  0  0  0  0  0
    2.4372   -3.1699    1.5672 C   0  0  0  0  0  0  0  0  0  0  0  0
    2.2870   -2.9959    3.0662 C   0  0  0  0  0  0  0  0  0  0  0  0
    0.6737   -1.5309   -0.7181 S   0  0  0  0  0  0  0  0  0  0  0  0
    0.3640   -0.0642   -1.7366 C   0  0  0  0  0  0  0  0  0  0  0  0
   -0.3603    1.3154   -0.8216 S   0  0  0  0  0  0  0  0  0  0  0  0
   -2.3191    0.4873   -0.6841 P   0  0  0  0  0  0  0  0  0  0  0  0
   -2.9406   -0.4430   -2.2884 S   0  0  0  0  0  0  0  0  0  0  0  0
   -3.1763    1.6972   -0.1147 O   0  0  0  0  0  0  0  0  0  0  0  0
   -3.1831    3.0371   -0.6442 C   0  0  0  0  0  0  0  0  0  0  0  0
   -3.4766    3.0796   -2.1290 C   0  0  0  0  0  0  0  0  0  0  0  0
   -2.3405   -0.5151    0.5293 O   0  0  0  0  0  0  0  0  0  0  0  0
   -2.0019   -0.1591    1.8931 C   0  0  0  0  0  0  0  0  0  0  0  0
   -1.6627   -1.4390    2.6267 C   0  0  0  0  0  0  0  0  0  0  0  0
    3.7362    3.2080   -1.1403 H   0  0  0  0  0  0  0  0  0  0  0  0
    3.3553    1.9075   -2.2764 H   0  0  0  0  0  0  0  0  0  0  0  0
    2.1534    2.4233   -1.0756 H   0  0  0  0  0  0  0  0  0  0  0  0
    3.5967    1.5957    0.7611 H   0  0  0  0  0  0  0  0  0  0  0  0
    4.8482    1.1127   -0.4195 H   0  0  0  0  0  0  0  0  0  0  0  0
    1.4744   -3.3888    1.0937 H   0  0  0  0  0  0  0  0  0  0  0  0
    3.1434   -3.9681    1.3304 H   0  0  0  0  0  0  0  0  0  0  0  0
    1.6021   -2.1811    3.2898 H   0  0  0  0  0  0  0  0  0  0  0  0
    1.8989   -3.9139    3.4956 H   0  0  0  0  0  0  0  0  0  0  0  0
    3.2510   -2.7683    3.5131 H   0  0  0  0  0  0  0  0  0  0  0  0
   -0.3394   -0.3823   -2.5091 H   0  0  0  0  0  0  0  0  0  0  0  0
    1.2989    0.2827   -2.1686 H   0  0  0  0  0  0  0  0  0  0  0  0
   -3.9640    3.5354   -0.0672 H   0  0  0  0  0  0  0  0  0  0  0  0
   -2.2130    3.4927   -0.4265 H   0  0  0  0  0  0  0  0  0  0  0  0
   -4.4112    2.5677   -2.3457 H   0  0  0  0  0  0  0  0  0  0  0  0
   -3.5483    4.1130   -2.4524 H   0  0  0  0  0  0  0  0  0  0  0  0
   -2.6796    2.5873   -2.6846 H   0  0  0  0  0  0  0  0  0  0  0  0
   -1.1495    0.5279    1.8859 H   0  0  0  0  0  0  0  0  0  0  0  0
   -2.8651    0.3438    2.3319 H   0  0  0  0  0  0  0  0  0  0  0  0
   -2.5097   -2.1183    2.6086 H   0  0  0  0  0  0  0  0  0  0  0  0
   -0.8153   -1.9260    2.1488 H   0  0  0  0  0  0  0  0  0  0  0  0
   -1.4038   -1.2005    3.6533 H   0  0  0  0  0  0  0  0  0  0  0  0
  1  2  1  0  0  0  0
  2  3  1  0  0  0  0
  3  4  2  0  0  0  0
  4  5  2  0  0  0  0
  4  6  2  0  0  0  0
  6  7  1  0  0  0  0
  7  8  1  0  0  0  0
  4  9  1  0  0  0  0
  9 10  1  0  0  0  0
 10 11  1  0  0  0  0
 11 12  1  0  0  0  0
 12 13  2  0  0  0  0
 12 14  2  0  0  0  0
 14 15  1  0  0  0  0
 15 16  1  0  0  0  0
 12 17  2  0  0  0  0
 17 18  1  0  0  0  0
 18 19  1  0  0  0  0
  1 20  1  0  0  0  0
  1 21  1  0  0  0  0
  1 22  1  0  0  0  0
  2 23  1  0  0  0  0
  2 24  1  0  0  0  0
  7 25  1  0  0  0  0
  7 26  1  0  0  0  0
  8 27  1  0  0  0  0
  8 28  1  0  0  0  0
  8 29  1  0  0  0  0
 10 30  1  0  0  0  0
 10 31  1  0  0  0  0
 15 32  1  0  0  0  0
 15 33  1  0  0  0  0
 16 34  1  0  0  0  0
 16 35  1  0  0  0  0
 16 36  1  0  0  0  0
 18 37  1  0  0  0  0
 18 38  1  0  0  0  0
 19 39  1  0  0  0  0
 19 40  1  0  0  0  0
 19 41  1  0  0  0  0
M  END
