 xtb: 6.7.1 (edcfbbe)
          04092505203D

 41 40  0     0  0            999 V2000
    2.3478    2.0377    2.7527 C   0  0  0  0  0  0  0  0  0  0  0  0
    1.3709    1.7535    1.6305 C   0  0  0  0  0  0  0  0  0  0  0  0
    0.8829    0.3912    1.6984 O   0  0  0  0  0  0  0  0  0  0  0  0
    1.4941   -0.7782    0.8381 P   0  0  0  0  0  0  0  0  0  0  0  0
    0.7395   -2.5400    1.2354 S   0  0  0  0  0  0  0  0  0  0  0  0
    3.0406   -0.6472    1.2060 O   0  0  0  0  0  0  0  0  0  0  0  0
    4.0166   -1.6366    0.8323 C   0  0  0  0  0  0  0  0  0  0  0  0
    4.7679   -1.2297   -0.4208 C   0  0  0  0  0  0  0  0  0  0  0  0
    1.4429   -0.1700   -1.2055 S   0  0  0  0  0  0  0  0  0  0  0  0
    0.2264   -1.3352   -1.8587 C   0  0  0  0  0  0  0  0  0  0  0  0
   -1.3201   -0.5705   -2.4418 S   0  0  0  0  0  0  0  0  0  0  0  0
   -2.0009    0.4325   -0.7150 P   0  0  0  0  0  0  0  0  0  0  0  0
   -3.8820    0.9672   -0.7653 S   0  0  0  0  0  0  0  0  0  0  0  0
   -0.9854    1.6300   -0.4287 O   0  0  0  0  0  0  0  0  0  0  0  0
   -1.1403    2.9204   -1.0466 C   0  0  0  0  0  0  0  0  0  0  0  0
   -0.7411    2.9004   -2.5088 C   0  0  0  0  0  0  0  0  0  0  0  0
   -1.5601   -0.5902    0.4201 O   0  0  0  0  0  0  0  0  0  0  0  0
   -2.3930   -0.8351    1.5722 C   0  0  0  0  0  0  0  0  0  0  0  0
   -2.3325    0.3099    2.5598 C   0  0  0  0  0  0  0  0  0  0  0  0
    3.2341    1.4183    2.6487 H   0  0  0  0  0  0  0  0  0  0  0  0
    2.6342    3.0841    2.7141 H   0  0  0  0  0  0  0  0  0  0  0  0
    1.8849    1.8287    3.7133 H   0  0  0  0  0  0  0  0  0  0  0  0
    1.8300    1.9163    0.6516 H   0  0  0  0  0  0  0  0  0  0  0  0
    0.4726    2.3676    1.7206 H   0  0  0  0  0  0  0  0  0  0  0  0
    4.6893   -1.6968    1.6902 H   0  0  0  0  0  0  0  0  0  0  0  0
    3.5133   -2.6006    0.7051 H   0  0  0  0  0  0  0  0  0  0  0  0
    5.2198   -0.2517   -0.2823 H   0  0  0  0  0  0  0  0  0  0  0  0
    5.5479   -1.9590   -0.6143 H   0  0  0  0  0  0  0  0  0  0  0  0
    4.0998   -1.1880   -1.2769 H   0  0  0  0  0  0  0  0  0  0  0  0
    0.0079   -2.0801   -1.0894 H   0  0  0  0  0  0  0  0  0  0  0  0
    0.6486   -1.7984   -2.7473 H   0  0  0  0  0  0  0  0  0  0  0  0
   -2.1832    3.2340   -0.9322 H   0  0  0  0  0  0  0  0  0  0  0  0
   -0.4894    3.5740   -0.4638 H   0  0  0  0  0  0  0  0  0  0  0  0
    0.2555    2.4801   -2.6222 H   0  0  0  0  0  0  0  0  0  0  0  0
   -1.4441    2.2979   -3.0826 H   0  0  0  0  0  0  0  0  0  0  0  0
   -0.7505    3.9146   -2.8949 H   0  0  0  0  0  0  0  0  0  0  0  0
   -3.4193   -0.9964    1.2283 H   0  0  0  0  0  0  0  0  0  0  0  0
   -1.9923   -1.7589    1.9940 H   0  0  0  0  0  0  0  0  0  0  0  0
   -2.9403    0.0661    3.4253 H   0  0  0  0  0  0  0  0  0  0  0  0
   -1.3054    0.4774    2.8723 H   0  0  0  0  0  0  0  0  0  0  0  0
   -2.7201    1.2158    2.0949 H   0  0  0  0  0  0  0  0  0  0  0  0
  1  2  1  0  0  0  0
  2  3  1  0  0  0  0
  3  4  2  0  0  0  0
  4  5  2  0  0  0  0
  4  6  2  0  0  0  0
  6  7  1  0  0  0  0
  7  8  1  0  0  0  0
  4  9  1  0  0  0  0
  9 10  1  0  0  0  0
 10 11  1  0  0  0  0
 11 12  1  0  0  0  0
 12 13  2  0  0  0  0
 12 14  1  0  0  0  0
 14 15  1  0  0  0  0
 15 16  1  0  0  0  0
 12 17  1  0  0  0  0
 17 18  1  0  0  0  0
 18 19  1  0  0  0  0
  1 20  1  0  0  0  0
  1 21  1  0  0  0  0
  1 22  1  0  0  0  0
  2 23  1  0  0  0  0
  2 24  1  0  0  0  0
  7 25  1  0  0  0  0
  7 26  1  0  0  0  0
  8 27  1  0  0  0  0
  8 28  1  0  0  0  0
  8 29  1  0  0  0  0
 10 30  1  0  0  0  0
 10 31  1  0  0  0  0
 15 32  1  0  0  0  0
 15 33  1  0  0  0  0
 16 34  1  0  0  0  0
 16 35  1  0  0  0  0
 16 36  1  0  0  0  0
 18 37  1  0  0  0  0
 18 38  1  0  0  0  0
 19 39  1  0  0  0  0
 19 40  1  0  0  0  0
 19 41  1  0  0  0  0
M  END
