 xtb: 6.7.1 (edcfbbe)
          04092505213D

 41 40  0     0  0            999 V2000
    3.8039   -2.7246   -0.2399 C   0  0  0  0  0  0  0  0  0  0  0  0
    4.3183   -1.3698    0.2059 C   0  0  0  0  0  0  0  0  0  0  0  0
    3.2540   -0.4185    0.4002 O   0  0  0  0  0  0  0  0  0  0  0  0
    2.4460    0.1794   -0.8320 P   0  0  0  0  0  0  0  0  0  0  0  0
    3.4626    0.4151   -2.4883 S   0  0  0  0  0  0  0  0  0  0  0  0
    1.9567    1.5064   -0.1060 O   0  0  0  0  0  0  0  0  0  0  0  0
    1.6376    2.6979   -0.8443 C   0  0  0  0  0  0  0  0  0  0  0  0
    0.4803    2.4973   -1.8018 C   0  0  0  0  0  0  0  0  0  0  0  0
    0.7092   -1.0279   -0.9278 S   0  0  0  0  0  0  0  0  0  0  0  0
    0.3938   -1.0859    0.8794 C   0  0  0  0  0  0  0  0  0  0  0  0
   -1.2963   -1.5796    1.2140 S   0  0  0  0  0  0  0  0  0  0  0  0
   -2.1917    0.3106    0.7797 P   0  0  0  0  0  0  0  0  0  0  0  0
   -1.2085    1.8336    1.5282 S   0  0  0  0  0  0  0  0  0  0  0  0
   -3.7091    0.1050    1.1952 O   0  0  0  0  0  0  0  0  0  0  0  0
   -4.1549   -0.4824    2.4320 C   0  0  0  0  0  0  0  0  0  0  0  0
   -3.6057    0.2311    3.6492 C   0  0  0  0  0  0  0  0  0  0  0  0
   -2.3062    0.5058   -0.7812 O   0  0  0  0  0  0  0  0  0  0  0  0
   -3.2272   -0.1660   -1.6747 C   0  0  0  0  0  0  0  0  0  0  0  0
   -2.9656   -1.6543   -1.7766 C   0  0  0  0  0  0  0  0  0  0  0  0
    4.6406   -3.4101   -0.3298 H   0  0  0  0  0  0  0  0  0  0  0  0
    3.0923   -3.1245    0.4779 H   0  0  0  0  0  0  0  0  0  0  0  0
    3.3170   -2.6353   -1.2108 H   0  0  0  0  0  0  0  0  0  0  0  0
    5.0137   -0.9645   -0.5357 H   0  0  0  0  0  0  0  0  0  0  0  0
    4.8048   -1.4207    1.1809 H   0  0  0  0  0  0  0  0  0  0  0  0
    1.3910    3.4248   -0.0686 H   0  0  0  0  0  0  0  0  0  0  0  0
    2.5326    3.0148   -1.3884 H   0  0  0  0  0  0  0  0  0  0  0  0
    0.2624    3.4361   -2.3006 H   0  0  0  0  0  0  0  0  0  0  0  0
    0.7410    1.7488   -2.5505 H   0  0  0  0  0  0  0  0  0  0  0  0
   -0.4059    2.1667   -1.2638 H   0  0  0  0  0  0  0  0  0  0  0  0
    0.5739   -0.0933    1.2989 H   0  0  0  0  0  0  0  0  0  0  0  0
    1.0384   -1.8344    1.3318 H   0  0  0  0  0  0  0  0  0  0  0  0
   -5.2418   -0.3993    2.3773 H   0  0  0  0  0  0  0  0  0  0  0  0
   -3.8602   -1.5352    2.4359 H   0  0  0  0  0  0  0  0  0  0  0  0
   -2.5227    0.1239    3.6909 H   0  0  0  0  0  0  0  0  0  0  0  0
   -3.8440    1.2914    3.6083 H   0  0  0  0  0  0  0  0  0  0  0  0
   -4.0382   -0.2002    4.5461 H   0  0  0  0  0  0  0  0  0  0  0  0
   -4.2430    0.0344   -1.3299 H   0  0  0  0  0  0  0  0  0  0  0  0
   -3.0518    0.3343   -2.6284 H   0  0  0  0  0  0  0  0  0  0  0  0
   -3.5776   -2.0634   -2.5744 H   0  0  0  0  0  0  0  0  0  0  0  0
   -1.9169   -1.8385   -2.0023 H   0  0  0  0  0  0  0  0  0  0  0  0
   -3.2191   -2.1559   -0.8455 H   0  0  0  0  0  0  0  0  0  0  0  0
  1  2  1  0  0  0  0
  2  3  1  0  0  0  0
  3  4  2  0  0  0  0
  4  5  2  0  0  0  0
  4  6  2  0  0  0  0
  6  7  1  0  0  0  0
  7  8  1  0  0  0  0
  4  9  1  0  0  0  0
  9 10  1  0  0  0  0
 10 11  1  0  0  0  0
 11 12  1  0  0  0  0
 12 13  2  0  0  0  0
 12 14  2  0  0  0  0
 14 15  1  0  0  0  0
 15 16  1  0  0  0  0
 12 17  2  0  0  0  0
 17 18  1  0  0  0  0
 18 19  1  0  0  0  0
  1 20  1  0  0  0  0
  1 21  1  0  0  0  0
  1 22  1  0  0  0  0
  2 23  1  0  0  0  0
  2 24  1  0  0  0  0
  7 25  1  0  0  0  0
  7 26  1  0  0  0  0
  8 27  1  0  0  0  0
  8 28  1  0  0  0  0
  8 29  1  0  0  0  0
 10 30  1  0  0  0  0
 10 31  1  0  0  0  0
 15 32  1  0  0  0  0
 15 33  1  0  0  0  0
 16 34  1  0  0  0  0
 16 35  1  0  0  0  0
 16 36  1  0  0  0  0
 18 37  1  0  0  0  0
 18 38  1  0  0  0  0
 19 39  1  0  0  0  0
 19 40  1  0  0  0  0
 19 41  1  0  0  0  0
M  END
