 xtb: 6.7.1 (edcfbbe)
          04092505203D

 41 40  0     0  0            999 V2000
    3.6265   -1.8503   -2.2117 C   0  0  0  0  0  0  0  0  0  0  0  0
    4.1581   -0.5347   -1.6790 C   0  0  0  0  0  0  0  0  0  0  0  0
    3.6751   -0.2461   -0.3580 O   0  0  0  0  0  0  0  0  0  0  0  0
    2.1485    0.0905   -0.0393 P   0  0  0  0  0  0  0  0  0  0  0  0
    1.3009    1.1994   -1.4227 S   0  0  0  0  0  0  0  0  0  0  0  0
    2.2926    0.6585    1.4264 O   0  0  0  0  0  0  0  0  0  0  0  0
    2.4672    2.0581    1.7162 C   0  0  0  0  0  0  0  0  0  0  0  0
    3.7735    2.5973    1.1728 C   0  0  0  0  0  0  0  0  0  0  0  0
    1.2640   -1.7727    0.4039 S   0  0  0  0  0  0  0  0  0  0  0  0
   -0.0527   -1.8167   -0.8664 C   0  0  0  0  0  0  0  0  0  0  0  0
   -1.7274   -1.8872   -0.1853 S   0  0  0  0  0  0  0  0  0  0  0  0
   -2.0259    0.1671    0.2886 P   0  0  0  0  0  0  0  0  0  0  0  0
   -0.8698    1.0083    1.6252 S   0  0  0  0  0  0  0  0  0  0  0  0
   -3.5736    0.2050    0.6507 O   0  0  0  0  0  0  0  0  0  0  0  0
   -4.0627   -0.0283    1.9829 C   0  0  0  0  0  0  0  0  0  0  0  0
   -3.8212   -1.4519    2.4406 C   0  0  0  0  0  0  0  0  0  0  0  0
   -1.9519    0.9172   -1.0933 O   0  0  0  0  0  0  0  0  0  0  0  0
   -2.7294    0.5734   -2.2678 C   0  0  0  0  0  0  0  0  0  0  0  0
   -4.0151    1.3721   -2.3200 C   0  0  0  0  0  0  0  0  0  0  0  0
    3.8010   -2.6465   -1.4926 H   0  0  0  0  0  0  0  0  0  0  0  0
    2.5563   -1.7693   -2.3973 H   0  0  0  0  0  0  0  0  0  0  0  0
    4.1284   -2.0883   -3.1440 H   0  0  0  0  0  0  0  0  0  0  0  0
    3.8713    0.2907   -2.3390 H   0  0  0  0  0  0  0  0  0  0  0  0
    5.2423   -0.5569   -1.5610 H   0  0  0  0  0  0  0  0  0  0  0  0
    1.6113    2.6038    1.3050 H   0  0  0  0  0  0  0  0  0  0  0  0
    2.4269    2.1003    2.8056 H   0  0  0  0  0  0  0  0  0  0  0  0
    4.6039    1.9932    1.5292 H   0  0  0  0  0  0  0  0  0  0  0  0
    3.7610    2.5740    0.0835 H   0  0  0  0  0  0  0  0  0  0  0  0
    3.9013    3.6236    1.5025 H   0  0  0  0  0  0  0  0  0  0  0  0
    0.0676   -2.7353   -1.4341 H   0  0  0  0  0  0  0  0  0  0  0  0
    0.0489   -0.9309   -1.5006 H   0  0  0  0  0  0  0  0  0  0  0  0
   -3.5749    0.6818    2.6581 H   0  0  0  0  0  0  0  0  0  0  0  0
   -5.1275    0.1979    1.9124 H   0  0  0  0  0  0  0  0  0  0  0  0
   -4.2044   -2.1563    1.7066 H   0  0  0  0  0  0  0  0  0  0  0  0
   -2.7536   -1.6253    2.5700 H   0  0  0  0  0  0  0  0  0  0  0  0
   -4.3194   -1.6122    3.3914 H   0  0  0  0  0  0  0  0  0  0  0  0
   -2.0701    0.8228   -3.1020 H   0  0  0  0  0  0  0  0  0  0  0  0
   -2.9327   -0.5010   -2.2571 H   0  0  0  0  0  0  0  0  0  0  0  0
   -3.7950    2.4351   -2.2705 H   0  0  0  0  0  0  0  0  0  0  0  0
   -4.5273    1.1549   -3.2522 H   0  0  0  0  0  0  0  0  0  0  0  0
   -4.6583    1.1070   -1.4854 H   0  0  0  0  0  0  0  0  0  0  0  0
  1  2  1  0  0  0  0
  2  3  1  0  0  0  0
  3  4  2  0  0  0  0
  4  5  2  0  0  0  0
  4  6  2  0  0  0  0
  6  7  1  0  0  0  0
  7  8  1  0  0  0  0
  4  9  1  0  0  0  0
  9 10  1  0  0  0  0
 10 11  1  0  0  0  0
 11 12  1  0  0  0  0
 12 13  2  0  0  0  0
 12 14  2  0  0  0  0
 14 15  1  0  0  0  0
 15 16  1  0  0  0  0
 12 17  2  0  0  0  0
 17 18  1  0  0  0  0
 18 19  1  0  0  0  0
  1 20  1  0  0  0  0
  1 21  1  0  0  0  0
  1 22  1  0  0  0  0
  2 23  1  0  0  0  0
  2 24  1  0  0  0  0
  7 25  1  0  0  0  0
  7 26  1  0  0  0  0
  8 27  1  0  0  0  0
  8 28  1  0  0  0  0
  8 29  1  0  0  0  0
 10 30  1  0  0  0  0
 10 31  1  0  0  0  0
 15 32  1  0  0  0  0
 15 33  1  0  0  0  0
 16 34  1  0  0  0  0
 16 35  1  0  0  0  0
 16 36  1  0  0  0  0
 18 37  1  0  0  0  0
 18 38  1  0  0  0  0
 19 39  1  0  0  0  0
 19 40  1  0  0  0  0
 19 41  1  0  0  0  0
M  END
