 xtb: 6.7.1 (edcfbbe)
          04092505203D

 41 40  0     0  0            999 V2000
    5.3990   -0.2435   -0.7788 C   0  0  0  0  0  0  0  0  0  0  0  0
    4.3994   -0.9299    0.1320 C   0  0  0  0  0  0  0  0  0  0  0  0
    3.3919   -0.0032    0.5825 O   0  0  0  0  0  0  0  0  0  0  0  0
    1.9853    0.1478   -0.1479 P   0  0  0  0  0  0  0  0  0  0  0  0
    2.0473    0.4850   -2.0827 S   0  0  0  0  0  0  0  0  0  0  0  0
    1.3138    1.2529    0.7620 O   0  0  0  0  0  0  0  0  0  0  0  0
    1.4030    2.6573    0.4542 C   0  0  0  0  0  0  0  0  0  0  0  0
    2.8212    3.1702    0.5771 C   0  0  0  0  0  0  0  0  0  0  0  0
    1.0243   -1.6235    0.4496 S   0  0  0  0  0  0  0  0  0  0  0  0
   -0.1352   -1.8779   -0.9400 C   0  0  0  0  0  0  0  0  0  0  0  0
   -1.8591   -1.9261   -0.4162 S   0  0  0  0  0  0  0  0  0  0  0  0
   -2.0468    0.1152    0.1527 P   0  0  0  0  0  0  0  0  0  0  0  0
   -1.3882    1.3850   -1.1870 S   0  0  0  0  0  0  0  0  0  0  0  0
   -1.3093    0.2988    1.5350 O   0  0  0  0  0  0  0  0  0  0  0  0
   -1.8088   -0.0987    2.8368 C   0  0  0  0  0  0  0  0  0  0  0  0
   -2.0055   -1.5947    2.9610 C   0  0  0  0  0  0  0  0  0  0  0  0
   -3.5729    0.2727    0.5592 O   0  0  0  0  0  0  0  0  0  0  0  0
   -4.6082    0.5749   -0.3943 C   0  0  0  0  0  0  0  0  0  0  0  0
   -4.8245   -0.5474   -1.3880 C   0  0  0  0  0  0  0  0  0  0  0  0
    4.9038    0.1115   -1.6801 H   0  0  0  0  0  0  0  0  0  0  0  0
    5.8505    0.6027   -0.2686 H   0  0  0  0  0  0  0  0  0  0  0  0
    6.1734   -0.9510   -1.0566 H   0  0  0  0  0  0  0  0  0  0  0  0
    4.8743   -1.2861    1.0481 H   0  0  0  0  0  0  0  0  0  0  0  0
    3.9171   -1.7688   -0.3782 H   0  0  0  0  0  0  0  0  0  0  0  0
    1.0130    2.8167   -0.5571 H   0  0  0  0  0  0  0  0  0  0  0  0
    0.7310    3.1238    1.1762 H   0  0  0  0  0  0  0  0  0  0  0  0
    3.4463    2.7045   -0.1841 H   0  0  0  0  0  0  0  0  0  0  0  0
    2.8277    4.2458    0.4309 H   0  0  0  0  0  0  0  0  0  0  0  0
    3.2224    2.9308    1.5584 H   0  0  0  0  0  0  0  0  0  0  0  0
    0.0745   -2.8505   -1.3776 H   0  0  0  0  0  0  0  0  0  0  0  0
    0.0170   -1.0771   -1.6695 H   0  0  0  0  0  0  0  0  0  0  0  0
   -1.0321    0.2602    3.5142 H   0  0  0  0  0  0  0  0  0  0  0  0
   -2.7422    0.4373    3.0185 H   0  0  0  0  0  0  0  0  0  0  0  0
   -1.0938   -2.1214    2.6870 H   0  0  0  0  0  0  0  0  0  0  0  0
   -2.2561   -1.8296    3.9910 H   0  0  0  0  0  0  0  0  0  0  0  0
   -2.8146   -1.9280    2.3148 H   0  0  0  0  0  0  0  0  0  0  0  0
   -5.4896    0.7383    0.2277 H   0  0  0  0  0  0  0  0  0  0  0  0
   -4.3398    1.5008   -0.9121 H   0  0  0  0  0  0  0  0  0  0  0  0
   -3.9619   -0.6346   -2.0466 H   0  0  0  0  0  0  0  0  0  0  0  0
   -4.9668   -1.4923   -0.8700 H   0  0  0  0  0  0  0  0  0  0  0  0
   -5.7021   -0.3282   -1.9877 H   0  0  0  0  0  0  0  0  0  0  0  0
  1  2  1  0  0  0  0
  2  3  1  0  0  0  0
  3  4  2  0  0  0  0
  4  5  2  0  0  0  0
  4  6  2  0  0  0  0
  6  7  1  0  0  0  0
  7  8  1  0  0  0  0
  4  9  1  0  0  0  0
  9 10  1  0  0  0  0
 10 11  1  0  0  0  0
 11 12  1  0  0  0  0
 12 13  2  0  0  0  0
 12 14  2  0  0  0  0
 14 15  1  0  0  0  0
 15 16  1  0  0  0  0
 12 17  2  0  0  0  0
 17 18  1  0  0  0  0
 18 19  1  0  0  0  0
  1 20  1  0  0  0  0
  1 21  1  0  0  0  0
  1 22  1  0  0  0  0
  2 23  1  0  0  0  0
  2 24  1  0  0  0  0
  7 25  1  0  0  0  0
  7 26  1  0  0  0  0
  8 27  1  0  0  0  0
  8 28  1  0  0  0  0
  8 29  1  0  0  0  0
 10 30  1  0  0  0  0
 10 31  1  0  0  0  0
 15 32  1  0  0  0  0
 15 33  1  0  0  0  0
 16 34  1  0  0  0  0
 16 35  1  0  0  0  0
 16 36  1  0  0  0  0
 18 37  1  0  0  0  0
 18 38  1  0  0  0  0
 19 39  1  0  0  0  0
 19 40  1  0  0  0  0
 19 41  1  0  0  0  0
M  END
