 xtb: 6.7.1 (edcfbbe)
          04092505203D

 41 40  0     0  0            999 V2000
    3.7571    1.5424   -1.7514 C   0  0  0  0  0  0  0  0  0  0  0  0
    2.4122    0.8761   -1.9533 C   0  0  0  0  0  0  0  0  0  0  0  0
    2.2459   -0.2590   -1.0859 O   0  0  0  0  0  0  0  0  0  0  0  0
    2.0354   -0.1011    0.4930 P   0  0  0  0  0  0  0  0  0  0  0  0
    1.0274    1.4756    1.0612 S   0  0  0  0  0  0  0  0  0  0  0  0
    3.4657   -0.0748    1.1728 O   0  0  0  0  0  0  0  0  0  0  0  0
    4.4844   -1.0737    0.9169 C   0  0  0  0  0  0  0  0  0  0  0  0
    4.5849   -2.0391    2.0803 C   0  0  0  0  0  0  0  0  0  0  0  0
    1.3252   -2.0396    0.8965 S   0  0  0  0  0  0  0  0  0  0  0  0
   -0.2494   -2.0269    0.0020 C   0  0  0  0  0  0  0  0  0  0  0  0
   -1.6386   -1.3442    0.9753 S   0  0  0  0  0  0  0  0  0  0  0  0
   -2.1628    0.3267   -0.2017 P   0  0  0  0  0  0  0  0  0  0  0  0
   -1.1108    0.6633   -1.8256 S   0  0  0  0  0  0  0  0  0  0  0  0
   -2.2084    1.4248    0.9313 O   0  0  0  0  0  0  0  0  0  0  0  0
   -2.1725    2.8414    0.6719 C   0  0  0  0  0  0  0  0  0  0  0  0
   -3.3456    3.3054   -0.1651 C   0  0  0  0  0  0  0  0  0  0  0  0
   -3.7203    0.1469   -0.4907 O   0  0  0  0  0  0  0  0  0  0  0  0
   -4.2281   -0.5412   -1.6445 C   0  0  0  0  0  0  0  0  0  0  0  0
   -3.9126   -2.0233   -1.6168 C   0  0  0  0  0  0  0  0  0  0  0  0
    4.5611    0.8279   -1.9079 H   0  0  0  0  0  0  0  0  0  0  0  0
    3.8596    2.3604   -2.4575 H   0  0  0  0  0  0  0  0  0  0  0  0
    3.8225    1.9395   -0.7385 H   0  0  0  0  0  0  0  0  0  0  0  0
    2.3040    0.4601   -2.9560 H   0  0  0  0  0  0  0  0  0  0  0  0
    1.5962    1.5813   -1.7668 H   0  0  0  0  0  0  0  0  0  0  0  0
    4.2487   -1.5953   -0.0139 H   0  0  0  0  0  0  0  0  0  0  0  0
    5.4062   -0.5011    0.7992 H   0  0  0  0  0  0  0  0  0  0  0  0
    3.6630   -2.6071    2.1843 H   0  0  0  0  0  0  0  0  0  0  0  0
    5.4078   -2.7241    1.9023 H   0  0  0  0  0  0  0  0  0  0  0  0
    4.7655   -1.4918    3.0013 H   0  0  0  0  0  0  0  0  0  0  0  0
   -0.4745   -3.0705   -0.2003 H   0  0  0  0  0  0  0  0  0  0  0  0
   -0.1413   -1.4506   -0.9205 H   0  0  0  0  0  0  0  0  0  0  0  0
   -2.1815    3.2825    1.6696 H   0  0  0  0  0  0  0  0  0  0  0  0
   -1.2193    3.0749    0.1863 H   0  0  0  0  0  0  0  0  0  0  0  0
   -3.2832    2.8767   -1.1650 H   0  0  0  0  0  0  0  0  0  0  0  0
   -4.2798    2.9936    0.2950 H   0  0  0  0  0  0  0  0  0  0  0  0
   -3.3219    4.3877   -0.2436 H   0  0  0  0  0  0  0  0  0  0  0  0
   -5.3026   -0.3574   -1.6059 H   0  0  0  0  0  0  0  0  0  0  0  0
   -3.8021   -0.0755   -2.5392 H   0  0  0  0  0  0  0  0  0  0  0  0
   -4.4298   -2.5150   -2.4345 H   0  0  0  0  0  0  0  0  0  0  0  0
   -2.8405   -2.1763   -1.7345 H   0  0  0  0  0  0  0  0  0  0  0  0
   -4.2295   -2.4593   -0.6729 H   0  0  0  0  0  0  0  0  0  0  0  0
  1  2  1  0  0  0  0
  2  3  1  0  0  0  0
  3  4  1  0  0  0  0
  4  5  2  0  0  0  0
  4  6  2  0  0  0  0
  6  7  1  0  0  0  0
  7  8  1  0  0  0  0
  4  9  1  0  0  0  0
  9 10  1  0  0  0  0
 10 11  1  0  0  0  0
 11 12  1  0  0  0  0
 12 13  2  0  0  0  0
 12 14  2  0  0  0  0
 14 15  1  0  0  0  0
 15 16  1  0  0  0  0
 12 17  2  0  0  0  0
 17 18  1  0  0  0  0
 18 19  1  0  0  0  0
  1 20  1  0  0  0  0
  1 21  1  0  0  0  0
  1 22  1  0  0  0  0
  2 23  1  0  0  0  0
  2 24  1  0  0  0  0
  7 25  1  0  0  0  0
  7 26  1  0  0  0  0
  8 27  1  0  0  0  0
  8 28  1  0  0  0  0
  8 29  1  0  0  0  0
 10 30  1  0  0  0  0
 10 31  1  0  0  0  0
 15 32  1  0  0  0  0
 15 33  1  0  0  0  0
 16 34  1  0  0  0  0
 16 35  1  0  0  0  0
 16 36  1  0  0  0  0
 18 37  1  0  0  0  0
 18 38  1  0  0  0  0
 19 39  1  0  0  0  0
 19 40  1  0  0  0  0
 19 41  1  0  0  0  0
M  END
