 xtb: 6.7.1 (edcfbbe)
          04092505213D

 41 40  0     0  0            999 V2000
    4.1647   -1.3424   -2.5903 C   0  0  0  0  0  0  0  0  0  0  0  0
    4.3044   -1.3663   -1.0813 C   0  0  0  0  0  0  0  0  0  0  0  0
    3.9055   -0.0839   -0.5297 O   0  0  0  0  0  0  0  0  0  0  0  0
    2.6326    0.1060    0.3819 P   0  0  0  0  0  0  0  0  0  0  0  0
    2.4389    1.9653    0.9481 S   0  0  0  0  0  0  0  0  0  0  0  0
    2.8986   -0.9504    1.5425 O   0  0  0  0  0  0  0  0  0  0  0  0
    2.2289   -0.8808    2.8141 C   0  0  0  0  0  0  0  0  0  0  0  0
    0.7668   -1.2644    2.7104 C   0  0  0  0  0  0  0  0  0  0  0  0
    1.0313   -0.7674   -0.7427 S   0  0  0  0  0  0  0  0  0  0  0  0
    0.3555    0.7694   -1.4163 C   0  0  0  0  0  0  0  0  0  0  0  0
   -0.8115    1.5894   -0.2976 S   0  0  0  0  0  0  0  0  0  0  0  0
   -2.3868    0.2064   -0.5777 P   0  0  0  0  0  0  0  0  0  0  0  0
   -2.6666   -0.4498   -2.3958 S   0  0  0  0  0  0  0  0  0  0  0  0
   -3.6833    0.9234   -0.0160 O   0  0  0  0  0  0  0  0  0  0  0  0
   -3.8245    1.3747    1.3536 C   0  0  0  0  0  0  0  0  0  0  0  0
   -3.5086    2.8519    1.4750 C   0  0  0  0  0  0  0  0  0  0  0  0
   -1.9677   -0.8989    0.5014 O   0  0  0  0  0  0  0  0  0  0  0  0
   -2.3334   -2.2837    0.3511 C   0  0  0  0  0  0  0  0  0  0  0  0
   -3.8112   -2.4958    0.6092 C   0  0  0  0  0  0  0  0  0  0  0  0
    4.7156   -0.5009   -3.0011 H   0  0  0  0  0  0  0  0  0  0  0  0
    4.5638   -2.2654   -2.9985 H   0  0  0  0  0  0  0  0  0  0  0  0
    3.1192   -1.2524   -2.8755 H   0  0  0  0  0  0  0  0  0  0  0  0
    5.3449   -1.4942   -0.7795 H   0  0  0  0  0  0  0  0  0  0  0  0
    3.6928   -2.1542   -0.6367 H   0  0  0  0  0  0  0  0  0  0  0  0
    2.7843   -1.5816    3.4393 H   0  0  0  0  0  0  0  0  0  0  0  0
    2.3365    0.1353    3.2065 H   0  0  0  0  0  0  0  0  0  0  0  0
    0.2205   -0.5180    2.1353 H   0  0  0  0  0  0  0  0  0  0  0  0
    0.6673   -2.2288    2.2182 H   0  0  0  0  0  0  0  0  0  0  0  0
    0.3397   -1.3203    3.7065 H   0  0  0  0  0  0  0  0  0  0  0  0
   -0.1647    0.5112   -2.3393 H   0  0  0  0  0  0  0  0  0  0  0  0
    1.1615    1.4785   -1.5949 H   0  0  0  0  0  0  0  0  0  0  0  0
   -4.8704    1.1753    1.5938 H   0  0  0  0  0  0  0  0  0  0  0  0
   -3.1737    0.7763    1.9954 H   0  0  0  0  0  0  0  0  0  0  0  0
   -4.1180    3.4213    0.7787 H   0  0  0  0  0  0  0  0  0  0  0  0
   -3.7220    3.1781    2.4881 H   0  0  0  0  0  0  0  0  0  0  0  0
   -2.4593    3.0405    1.2557 H   0  0  0  0  0  0  0  0  0  0  0  0
   -2.0659   -2.6059   -0.6598 H   0  0  0  0  0  0  0  0  0  0  0  0
   -1.7133   -2.8034    1.0822 H   0  0  0  0  0  0  0  0  0  0  0  0
   -4.3948   -1.9407   -0.1252 H   0  0  0  0  0  0  0  0  0  0  0  0
   -4.0450   -3.5518    0.5184 H   0  0  0  0  0  0  0  0  0  0  0  0
   -4.0770   -2.1523    1.6056 H   0  0  0  0  0  0  0  0  0  0  0  0
  1  2  1  0  0  0  0
  2  3  1  0  0  0  0
  3  4  2  0  0  0  0
  4  5  2  0  0  0  0
  4  6  2  0  0  0  0
  6  7  1  0  0  0  0
  7  8  1  0  0  0  0
  4  9  1  0  0  0  0
  9 10  1  0  0  0  0
 10 11  1  0  0  0  0
 11 12  1  0  0  0  0
 12 13  2  0  0  0  0
 12 14  2  0  0  0  0
 14 15  1  0  0  0  0
 15 16  1  0  0  0  0
 12 17  1  0  0  0  0
 17 18  1  0  0  0  0
 18 19  1  0  0  0  0
  1 20  1  0  0  0  0
  1 21  1  0  0  0  0
  1 22  1  0  0  0  0
  2 23  1  0  0  0  0
  2 24  1  0  0  0  0
  7 25  1  0  0  0  0
  7 26  1  0  0  0  0
  8 27  1  0  0  0  0
  8 28  1  0  0  0  0
  8 29  1  0  0  0  0
 10 30  1  0  0  0  0
 10 31  1  0  0  0  0
 15 32  1  0  0  0  0
 15 33  1  0  0  0  0
 16 34  1  0  0  0  0
 16 35  1  0  0  0  0
 16 36  1  0  0  0  0
 18 37  1  0  0  0  0
 18 38  1  0  0  0  0
 19 39  1  0  0  0  0
 19 40  1  0  0  0  0
 19 41  1  0  0  0  0
M  END
