 xtb: 6.7.1 (edcfbbe)
          04092505213D

 41 40  0     0  0            999 V2000
    4.3097   -1.0219   -2.2917 C   0  0  0  0  0  0  0  0  0  0  0  0
    4.7976   -1.0532   -0.8581 C   0  0  0  0  0  0  0  0  0  0  0  0
    3.7175   -1.1490    0.0887 O   0  0  0  0  0  0  0  0  0  0  0  0
    2.6477    0.0099    0.2816 P   0  0  0  0  0  0  0  0  0  0  0  0
    3.3339    1.8376    0.2091 S   0  0  0  0  0  0  0  0  0  0  0  0
    2.0188   -0.3132    1.6907 O   0  0  0  0  0  0  0  0  0  0  0  0
    1.4749   -1.6017    2.0654 C   0  0  0  0  0  0  0  0  0  0  0  0
    2.5199   -2.4596    2.7488 C   0  0  0  0  0  0  0  0  0  0  0  0
    1.1145   -0.4708   -1.1354 S   0  0  0  0  0  0  0  0  0  0  0  0
    0.2902    1.1350   -1.0665 C   0  0  0  0  0  0  0  0  0  0  0  0
   -0.8223    1.2968    0.3476 S   0  0  0  0  0  0  0  0  0  0  0  0
   -2.4545    0.1990   -0.5055 P   0  0  0  0  0  0  0  0  0  0  0  0
   -2.6531    0.3817   -2.4407 S   0  0  0  0  0  0  0  0  0  0  0  0
   -3.6841    0.6868    0.3716 O   0  0  0  0  0  0  0  0  0  0  0  0
   -4.2257    2.0149    0.2152 C   0  0  0  0  0  0  0  0  0  0  0  0
   -5.5799    2.0457    0.8941 C   0  0  0  0  0  0  0  0  0  0  0  0
   -2.2734   -1.2999   -0.0650 O   0  0  0  0  0  0  0  0  0  0  0  0
   -2.2326   -1.7285    1.3198 C   0  0  0  0  0  0  0  0  0  0  0  0
   -3.6026   -2.1746    1.7872 C   0  0  0  0  0  0  0  0  0  0  0  0
    3.6390   -1.8558   -2.4841 H   0  0  0  0  0  0  0  0  0  0  0  0
    3.7775   -0.0916   -2.4851 H   0  0  0  0  0  0  0  0  0  0  0  0
    5.1618   -1.0828   -2.9612 H   0  0  0  0  0  0  0  0  0  0  0  0
    5.3756   -0.1528   -0.6295 H   0  0  0  0  0  0  0  0  0  0  0  0
    5.3982   -1.9416   -0.6576 H   0  0  0  0  0  0  0  0  0  0  0  0
    0.6573   -1.3576    2.7465 H   0  0  0  0  0  0  0  0  0  0  0  0
    1.0836   -2.0924    1.1691 H   0  0  0  0  0  0  0  0  0  0  0  0
    2.9399   -1.9263    3.5970 H   0  0  0  0  0  0  0  0  0  0  0  0
    2.0530   -3.3758    3.0968 H   0  0  0  0  0  0  0  0  0  0  0  0
    3.3207   -2.7052    2.0570 H   0  0  0  0  0  0  0  0  0  0  0  0
   -0.2890    1.2392   -1.9854 H   0  0  0  0  0  0  0  0  0  0  0  0
    1.0431    1.9196   -0.9756 H   0  0  0  0  0  0  0  0  0  0  0  0
   -3.5306    2.7234    0.6738 H   0  0  0  0  0  0  0  0  0  0  0  0
   -4.3066    2.2340   -0.8545 H   0  0  0  0  0  0  0  0  0  0  0  0
   -6.0047    3.0390    0.7938 H   0  0  0  0  0  0  0  0  0  0  0  0
   -6.2461    1.3234    0.4308 H   0  0  0  0  0  0  0  0  0  0  0  0
   -5.4742    1.8058    1.9481 H   0  0  0  0  0  0  0  0  0  0  0  0
   -1.5238   -2.5585    1.3243 H   0  0  0  0  0  0  0  0  0  0  0  0
   -1.8523   -0.9057    1.9318 H   0  0  0  0  0  0  0  0  0  0  0  0
   -4.2977   -1.3399    1.7726 H   0  0  0  0  0  0  0  0  0  0  0  0
   -3.9805   -2.9565    1.1344 H   0  0  0  0  0  0  0  0  0  0  0  0
   -3.5237   -2.5591    2.7993 H   0  0  0  0  0  0  0  0  0  0  0  0
  1  2  1  0  0  0  0
  2  3  1  0  0  0  0
  3  4  2  0  0  0  0
  4  5  2  0  0  0  0
  4  6  2  0  0  0  0
  6  7  1  0  0  0  0
  7  8  1  0  0  0  0
  4  9  1  0  0  0  0
  9 10  1  0  0  0  0
 10 11  1  0  0  0  0
 11 12  1  0  0  0  0
 12 13  2  0  0  0  0
 12 14  2  0  0  0  0
 14 15  1  0  0  0  0
 15 16  1  0  0  0  0
 12 17  2  0  0  0  0
 17 18  1  0  0  0  0
 18 19  1  0  0  0  0
  1 20  1  0  0  0  0
  1 21  1  0  0  0  0
  1 22  1  0  0  0  0
  2 23  1  0  0  0  0
  2 24  1  0  0  0  0
  7 25  1  0  0  0  0
  7 26  1  0  0  0  0
  8 27  1  0  0  0  0
  8 28  1  0  0  0  0
  8 29  1  0  0  0  0
 10 30  1  0  0  0  0
 10 31  1  0  0  0  0
 15 32  1  0  0  0  0
 15 33  1  0  0  0  0
 16 34  1  0  0  0  0
 16 35  1  0  0  0  0
 16 36  1  0  0  0  0
 18 37  1  0  0  0  0
 18 38  1  0  0  0  0
 19 39  1  0  0  0  0
 19 40  1  0  0  0  0
 19 41  1  0  0  0  0
M  END
