 xtb: 6.7.1 (edcfbbe)
          04092505203D

 41 40  0     0  0            999 V2000
    4.3614   -2.3698   -0.7809 C   0  0  0  0  0  0  0  0  0  0  0  0
    4.9604   -0.9848   -0.6441 C   0  0  0  0  0  0  0  0  0  0  0  0
    4.1043   -0.0882    0.0849 O   0  0  0  0  0  0  0  0  0  0  0  0
    2.7009    0.4014   -0.4758 P   0  0  0  0  0  0  0  0  0  0  0  0
    2.6649    0.7744   -2.3980 S   0  0  0  0  0  0  0  0  0  0  0  0
    2.4224    1.7098    0.3562 O   0  0  0  0  0  0  0  0  0  0  0  0
    2.0419    1.8019    1.7504 C   0  0  0  0  0  0  0  0  0  0  0  0
    2.9575    1.0230    2.6689 C   0  0  0  0  0  0  0  0  0  0  0  0
    1.3085   -1.0642    0.2000 S   0  0  0  0  0  0  0  0  0  0  0  0
   -0.0228   -0.6098   -0.9261 C   0  0  0  0  0  0  0  0  0  0  0  0
   -0.8515    0.9444   -0.4281 S   0  0  0  0  0  0  0  0  0  0  0  0
   -2.7444    0.1413    0.0632 P   0  0  0  0  0  0  0  0  0  0  0  0
   -4.0596    1.3752    0.8237 S   0  0  0  0  0  0  0  0  0  0  0  0
   -2.4575   -1.1678    0.9275 O   0  0  0  0  0  0  0  0  0  0  0  0
   -2.4525   -1.1487    2.3649 C   0  0  0  0  0  0  0  0  0  0  0  0
   -1.2570   -0.3988    2.9156 C   0  0  0  0  0  0  0  0  0  0  0  0
   -3.0936   -0.4909   -1.3516 O   0  0  0  0  0  0  0  0  0  0  0  0
   -4.4496   -0.8088   -1.7284 C   0  0  0  0  0  0  0  0  0  0  0  0
   -5.0188   -1.9417   -0.9004 C   0  0  0  0  0  0  0  0  0  0  0  0
    5.0997   -3.0366   -1.2147 H   0  0  0  0  0  0  0  0  0  0  0  0
    4.0579   -2.7499    0.1911 H   0  0  0  0  0  0  0  0  0  0  0  0
    3.4916   -2.3365   -1.4350 H   0  0  0  0  0  0  0  0  0  0  0  0
    5.1561   -0.5516   -1.6300 H   0  0  0  0  0  0  0  0  0  0  0  0
    5.8795   -0.9995   -0.0567 H   0  0  0  0  0  0  0  0  0  0  0  0
    2.0860    2.8740    1.9478 H   0  0  0  0  0  0  0  0  0  0  0  0
    1.0076    1.4596    1.8388 H   0  0  0  0  0  0  0  0  0  0  0  0
    3.9883    1.3364    2.5263 H   0  0  0  0  0  0  0  0  0  0  0  0
    2.6638    1.2079    3.6976 H   0  0  0  0  0  0  0  0  0  0  0  0
    2.8825   -0.0431    2.4638 H   0  0  0  0  0  0  0  0  0  0  0  0
   -0.7471   -1.4187   -0.9262 H   0  0  0  0  0  0  0  0  0  0  0  0
    0.3979   -0.4454   -1.9190 H   0  0  0  0  0  0  0  0  0  0  0  0
   -3.3849   -0.6879    2.7065 H   0  0  0  0  0  0  0  0  0  0  0  0
   -2.4307   -2.2032    2.6422 H   0  0  0  0  0  0  0  0  0  0  0  0
   -0.3337   -0.8251    2.5294 H   0  0  0  0  0  0  0  0  0  0  0  0
   -1.3201    0.6507    2.6263 H   0  0  0  0  0  0  0  0  0  0  0  0
   -1.2583   -0.4644    3.9986 H   0  0  0  0  0  0  0  0  0  0  0  0
   -5.0587    0.0938   -1.6176 H   0  0  0  0  0  0  0  0  0  0  0  0
   -4.3694   -1.0751   -2.7832 H   0  0  0  0  0  0  0  0  0  0  0  0
   -4.3614   -2.8062   -0.9392 H   0  0  0  0  0  0  0  0  0  0  0  0
   -5.1266   -1.6241    0.1358 H   0  0  0  0  0  0  0  0  0  0  0  0
   -5.9956   -2.2127   -1.2887 H   0  0  0  0  0  0  0  0  0  0  0  0
  1  2  1  0  0  0  0
  2  3  1  0  0  0  0
  3  4  2  0  0  0  0
  4  5  2  0  0  0  0
  4  6  2  0  0  0  0
  6  7  1  0  0  0  0
  7  8  1  0  0  0  0
  4  9  1  0  0  0  0
  9 10  1  0  0  0  0
 10 11  1  0  0  0  0
 11 12  1  0  0  0  0
 12 13  2  0  0  0  0
 12 14  2  0  0  0  0
 14 15  1  0  0  0  0
 15 16  1  0  0  0  0
 12 17  2  0  0  0  0
 17 18  1  0  0  0  0
 18 19  1  0  0  0  0
  1 20  1  0  0  0  0
  1 21  1  0  0  0  0
  1 22  1  0  0  0  0
  2 23  1  0  0  0  0
  2 24  1  0  0  0  0
  7 25  1  0  0  0  0
  7 26  1  0  0  0  0
  8 27  1  0  0  0  0
  8 28  1  0  0  0  0
  8 29  1  0  0  0  0
 10 30  1  0  0  0  0
 10 31  1  0  0  0  0
 15 32  1  0  0  0  0
 15 33  1  0  0  0  0
 16 34  1  0  0  0  0
 16 35  1  0  0  0  0
 16 36  1  0  0  0  0
 18 37  1  0  0  0  0
 18 38  1  0  0  0  0
 19 39  1  0  0  0  0
 19 40  1  0  0  0  0
 19 41  1  0  0  0  0
M  END
