 xtb: 6.7.1 (edcfbbe)
          04092505203D

 41 40  0     0  0            999 V2000
    4.4064    1.6198   -0.6247 C   0  0  0  0  0  0  0  0  0  0  0  0
    4.5167    0.1595   -0.2400 C   0  0  0  0  0  0  0  0  0  0  0  0
    3.5115   -0.2512    0.7038 O   0  0  0  0  0  0  0  0  0  0  0  0
    1.9390   -0.0698    0.5249 P   0  0  0  0  0  0  0  0  0  0  0  0
    1.2051    1.7189    0.8280 S   0  0  0  0  0  0  0  0  0  0  0  0
    1.4076   -1.0899    1.6051 O   0  0  0  0  0  0  0  0  0  0  0  0
    1.8175   -2.4772    1.6380 C   0  0  0  0  0  0  0  0  0  0  0  0
    2.8365   -2.7024    2.7362 C   0  0  0  0  0  0  0  0  0  0  0  0
    1.6056   -0.9353   -1.3986 S   0  0  0  0  0  0  0  0  0  0  0  0
    0.3053    0.1480   -2.0294 C   0  0  0  0  0  0  0  0  0  0  0  0
   -1.3324   -0.6563   -2.1113 S   0  0  0  0  0  0  0  0  0  0  0  0
   -2.2424    0.1176   -0.3909 P   0  0  0  0  0  0  0  0  0  0  0  0
   -4.1412   -0.2925   -0.1472 S   0  0  0  0  0  0  0  0  0  0  0  0
   -1.9141    1.6793   -0.3521 O   0  0  0  0  0  0  0  0  0  0  0  0
   -2.8107    2.6584   -0.9018 C   0  0  0  0  0  0  0  0  0  0  0  0
   -2.7993    2.6429   -2.4172 C   0  0  0  0  0  0  0  0  0  0  0  0
   -1.2414   -0.4365    0.7170 O   0  0  0  0  0  0  0  0  0  0  0  0
   -1.5678   -0.2457    2.1138 C   0  0  0  0  0  0  0  0  0  0  0  0
   -2.1507   -1.5145    2.6996 C   0  0  0  0  0  0  0  0  0  0  0  0
    5.2442    1.8886   -1.2600 H   0  0  0  0  0  0  0  0  0  0  0  0
    3.4785    1.7992   -1.1655 H   0  0  0  0  0  0  0  0  0  0  0  0
    4.4112    2.2481    0.2629 H   0  0  0  0  0  0  0  0  0  0  0  0
    5.4545   -0.0429    0.2805 H   0  0  0  0  0  0  0  0  0  0  0  0
    4.4370   -0.4804   -1.1231 H   0  0  0  0  0  0  0  0  0  0  0  0
    0.8995   -3.0382    1.8252 H   0  0  0  0  0  0  0  0  0  0  0  0
    2.2189   -2.7568    0.6596 H   0  0  0  0  0  0  0  0  0  0  0  0
    2.4254   -2.3965    3.6942 H   0  0  0  0  0  0  0  0  0  0  0  0
    3.0904   -3.7571    2.7745 H   0  0  0  0  0  0  0  0  0  0  0  0
    3.7341   -2.1223    2.5395 H   0  0  0  0  0  0  0  0  0  0  0  0
    0.5659    0.3979   -3.0541 H   0  0  0  0  0  0  0  0  0  0  0  0
    0.2464    1.0357   -1.3936 H   0  0  0  0  0  0  0  0  0  0  0  0
   -3.8177    2.4562   -0.5222 H   0  0  0  0  0  0  0  0  0  0  0  0
   -2.4431    3.6043   -0.5015 H   0  0  0  0  0  0  0  0  0  0  0  0
   -3.1743    1.6866   -2.7812 H   0  0  0  0  0  0  0  0  0  0  0  0
   -3.4414    3.4359   -2.7868 H   0  0  0  0  0  0  0  0  0  0  0  0
   -1.7901    2.7946   -2.7911 H   0  0  0  0  0  0  0  0  0  0  0  0
   -0.6240    0.0256    2.5907 H   0  0  0  0  0  0  0  0  0  0  0  0
   -2.2679    0.5896    2.2044 H   0  0  0  0  0  0  0  0  0  0  0  0
   -2.3329   -1.3654    3.7590 H   0  0  0  0  0  0  0  0  0  0  0  0
   -3.0898   -1.7569    2.2062 H   0  0  0  0  0  0  0  0  0  0  0  0
   -1.4587   -2.3409    2.5650 H   0  0  0  0  0  0  0  0  0  0  0  0
  1  2  1  0  0  0  0
  2  3  1  0  0  0  0
  3  4  2  0  0  0  0
  4  5  2  0  0  0  0
  4  6  2  0  0  0  0
  6  7  1  0  0  0  0
  7  8  1  0  0  0  0
  4  9  1  0  0  0  0
  9 10  1  0  0  0  0
 10 11  1  0  0  0  0
 11 12  1  0  0  0  0
 12 13  2  0  0  0  0
 12 14  2  0  0  0  0
 14 15  1  0  0  0  0
 15 16  1  0  0  0  0
 12 17  1  0  0  0  0
 17 18  1  0  0  0  0
 18 19  1  0  0  0  0
  1 20  1  0  0  0  0
  1 21  1  0  0  0  0
  1 22  1  0  0  0  0
  2 23  1  0  0  0  0
  2 24  1  0  0  0  0
  7 25  1  0  0  0  0
  7 26  1  0  0  0  0
  8 27  1  0  0  0  0
  8 28  1  0  0  0  0
  8 29  1  0  0  0  0
 10 30  1  0  0  0  0
 10 31  1  0  0  0  0
 15 32  1  0  0  0  0
 15 33  1  0  0  0  0
 16 34  1  0  0  0  0
 16 35  1  0  0  0  0
 16 36  1  0  0  0  0
 18 37  1  0  0  0  0
 18 38  1  0  0  0  0
 19 39  1  0  0  0  0
 19 40  1  0  0  0  0
 19 41  1  0  0  0  0
M  END
