 xtb: 6.7.1 (edcfbbe)
          04092505213D

 41 40  0     0  0            999 V2000
    2.9789    2.6090   -0.7444 C   0  0  0  0  0  0  0  0  0  0  0  0
    3.7967    1.3366   -0.8054 C   0  0  0  0  0  0  0  0  0  0  0  0
    3.5314    0.4484    0.2950 O   0  0  0  0  0  0  0  0  0  0  0  0
    2.0858   -0.0030    0.7820 P   0  0  0  0  0  0  0  0  0  0  0  0
    1.1428    1.2482    1.9517 S   0  0  0  0  0  0  0  0  0  0  0  0
    2.3773   -1.3420    1.5589 O   0  0  0  0  0  0  0  0  0  0  0  0
    3.2699   -2.3833    1.0847 C   0  0  0  0  0  0  0  0  0  0  0  0
    4.6369   -2.2367    1.7211 C   0  0  0  0  0  0  0  0  0  0  0  0
    1.1918   -0.6141   -1.0786 S   0  0  0  0  0  0  0  0  0  0  0  0
    0.0359   -1.8681   -0.4644 C   0  0  0  0  0  0  0  0  0  0  0  0
   -1.1458   -1.2567    0.7707 S   0  0  0  0  0  0  0  0  0  0  0  0
   -2.1451    0.0922   -0.5055 P   0  0  0  0  0  0  0  0  0  0  0  0
   -2.3803   -0.4561   -2.3756 S   0  0  0  0  0  0  0  0  0  0  0  0
   -1.2709    1.3867   -0.2587 O   0  0  0  0  0  0  0  0  0  0  0  0
   -1.2667    2.5135   -1.1582 C   0  0  0  0  0  0  0  0  0  0  0  0
   -2.6219    3.1824   -1.2412 C   0  0  0  0  0  0  0  0  0  0  0  0
   -3.4870    0.4403    0.2692 O   0  0  0  0  0  0  0  0  0  0  0  0
   -4.7047   -0.2991    0.0698 C   0  0  0  0  0  0  0  0  0  0  0  0
   -4.6123   -1.7098    0.6148 C   0  0  0  0  0  0  0  0  0  0  0  0
    3.2610    3.2621   -1.5639 H   0  0  0  0  0  0  0  0  0  0  0  0
    1.9189    2.3694   -0.8285 H   0  0  0  0  0  0  0  0  0  0  0  0
    3.1405    3.1205    0.2016 H   0  0  0  0  0  0  0  0  0  0  0  0
    4.8649    1.5438   -0.7199 H   0  0  0  0  0  0  0  0  0  0  0  0
    3.5948    0.7949   -1.7342 H   0  0  0  0  0  0  0  0  0  0  0  0
    2.7920   -3.3161    1.3911 H   0  0  0  0  0  0  0  0  0  0  0  0
    3.3358   -2.3339   -0.0054 H   0  0  0  0  0  0  0  0  0  0  0  0
    5.0916   -1.2958    1.4233 H   0  0  0  0  0  0  0  0  0  0  0  0
    4.5456   -2.2521    2.8036 H   0  0  0  0  0  0  0  0  0  0  0  0
    5.2685   -3.0598    1.4016 H   0  0  0  0  0  0  0  0  0  0  0  0
    0.5776   -2.6836    0.0072 H   0  0  0  0  0  0  0  0  0  0  0  0
   -0.5065   -2.2128   -1.3458 H   0  0  0  0  0  0  0  0  0  0  0  0
   -0.5146    3.1788   -0.7299 H   0  0  0  0  0  0  0  0  0  0  0  0
   -0.9429    2.1635   -2.1442 H   0  0  0  0  0  0  0  0  0  0  0  0
   -2.9709    3.4434   -0.2453 H   0  0  0  0  0  0  0  0  0  0  0  0
   -2.5422    4.0805   -1.8456 H   0  0  0  0  0  0  0  0  0  0  0  0
   -3.3415    2.5067   -1.7027 H   0  0  0  0  0  0  0  0  0  0  0  0
   -5.4571    0.2890    0.5968 H   0  0  0  0  0  0  0  0  0  0  0  0
   -4.9261   -0.3159   -1.0024 H   0  0  0  0  0  0  0  0  0  0  0  0
   -3.8978   -2.2888    0.0309 H   0  0  0  0  0  0  0  0  0  0  0  0
   -4.2843   -1.6933    1.6514 H   0  0  0  0  0  0  0  0  0  0  0  0
   -5.5864   -2.1841    0.5513 H   0  0  0  0  0  0  0  0  0  0  0  0
  1  2  1  0  0  0  0
  2  3  1  0  0  0  0
  3  4  2  0  0  0  0
  4  5  2  0  0  0  0
  4  6  2  0  0  0  0
  6  7  1  0  0  0  0
  7  8  1  0  0  0  0
  4  9  1  0  0  0  0
  9 10  1  0  0  0  0
 10 11  1  0  0  0  0
 11 12  1  0  0  0  0
 12 13  2  0  0  0  0
 12 14  2  0  0  0  0
 14 15  1  0  0  0  0
 15 16  1  0  0  0  0
 12 17  2  0  0  0  0
 17 18  1  0  0  0  0
 18 19  1  0  0  0  0
  1 20  1  0  0  0  0
  1 21  1  0  0  0  0
  1 22  1  0  0  0  0
  2 23  1  0  0  0  0
  2 24  1  0  0  0  0
  7 25  1  0  0  0  0
  7 26  1  0  0  0  0
  8 27  1  0  0  0  0
  8 28  1  0  0  0  0
  8 29  1  0  0  0  0
 10 30  1  0  0  0  0
 10 31  1  0  0  0  0
 15 32  1  0  0  0  0
 15 33  1  0  0  0  0
 16 34  1  0  0  0  0
 16 35  1  0  0  0  0
 16 36  1  0  0  0  0
 18 37  1  0  0  0  0
 18 38  1  0  0  0  0
 19 39  1  0  0  0  0
 19 40  1  0  0  0  0
 19 41  1  0  0  0  0
M  END
