 xtb: 6.7.1 (edcfbbe)
          04092505213D

 41 40  0     0  0            999 V2000
    5.0408   -1.3300    0.1013 C   0  0  0  0  0  0  0  0  0  0  0  0
    4.7751   -0.2022   -0.8733 C   0  0  0  0  0  0  0  0  0  0  0  0
    3.7001    0.6660   -0.4417 O   0  0  0  0  0  0  0  0  0  0  0  0
    2.1861    0.2409   -0.2595 P   0  0  0  0  0  0  0  0  0  0  0  0
    1.0374    1.8258   -0.2801 S   0  0  0  0  0  0  0  0  0  0  0  0
    2.0777   -0.6546    1.0606 O   0  0  0  0  0  0  0  0  0  0  0  0
    1.6944   -0.1252    2.3390 C   0  0  0  0  0  0  0  0  0  0  0  0
    2.7758    0.7662    2.9145 C   0  0  0  0  0  0  0  0  0  0  0  0
    1.8792   -1.2303   -1.7348 S   0  0  0  0  0  0  0  0  0  0  0  0
    0.0772   -1.1556   -1.8121 C   0  0  0  0  0  0  0  0  0  0  0  0
   -0.7355   -1.6113   -0.2403 S   0  0  0  0  0  0  0  0  0  0  0  0
   -2.0663    0.0128   -0.0109 P   0  0  0  0  0  0  0  0  0  0  0  0
   -2.3616    1.1397   -1.5926 S   0  0  0  0  0  0  0  0  0  0  0  0
   -1.5474    0.6970    1.3173 O   0  0  0  0  0  0  0  0  0  0  0  0
   -1.8819    2.0600    1.6542 C   0  0  0  0  0  0  0  0  0  0  0  0
   -3.3656    2.2337    1.8946 C   0  0  0  0  0  0  0  0  0  0  0  0
   -3.3780   -0.7030    0.5324 O   0  0  0  0  0  0  0  0  0  0  0  0
   -4.2474   -1.4426   -0.3466 C   0  0  0  0  0  0  0  0  0  0  0  0
   -5.5504   -1.6887    0.3868 C   0  0  0  0  0  0  0  0  0  0  0  0
    5.2687   -0.9328    1.0869 H   0  0  0  0  0  0  0  0  0  0  0  0
    4.1710   -1.9796    0.1719 H   0  0  0  0  0  0  0  0  0  0  0  0
    5.8870   -1.9100   -0.2536 H   0  0  0  0  0  0  0  0  0  0  0  0
    4.5228   -0.5938   -1.8621 H   0  0  0  0  0  0  0  0  0  0  0  0
    5.6269    0.4756   -0.9495 H   0  0  0  0  0  0  0  0  0  0  0  0
    0.7563    0.4268    2.2236 H   0  0  0  0  0  0  0  0  0  0  0  0
    1.5236   -1.0118    2.9514 H   0  0  0  0  0  0  0  0  0  0  0  0
    2.4622    1.1376    3.8850 H   0  0  0  0  0  0  0  0  0  0  0  0
    3.7039    0.2115    3.0238 H   0  0  0  0  0  0  0  0  0  0  0  0
    2.9454    1.6113    2.2467 H   0  0  0  0  0  0  0  0  0  0  0  0
   -0.2125   -1.8787   -2.5706 H   0  0  0  0  0  0  0  0  0  0  0  0
   -0.2460   -0.1475   -2.0876 H   0  0  0  0  0  0  0  0  0  0  0  0
   -1.2975    2.2567    2.5542 H   0  0  0  0  0  0  0  0  0  0  0  0
   -1.5305    2.7093    0.8452 H   0  0  0  0  0  0  0  0  0  0  0  0
   -3.5577    3.2474    2.2317 H   0  0  0  0  0  0  0  0  0  0  0  0
   -3.9120    2.0590    0.9684 H   0  0  0  0  0  0  0  0  0  0  0  0
   -3.7080    1.5266    2.6457 H   0  0  0  0  0  0  0  0  0  0  0  0
   -4.4013   -0.8552   -1.2583 H   0  0  0  0  0  0  0  0  0  0  0  0
   -3.7523   -2.3826   -0.6066 H   0  0  0  0  0  0  0  0  0  0  0  0
   -5.3587   -2.2332    1.3067 H   0  0  0  0  0  0  0  0  0  0  0  0
   -6.0281   -0.7439    0.6296 H   0  0  0  0  0  0  0  0  0  0  0  0
   -6.2106   -2.2716   -0.2467 H   0  0  0  0  0  0  0  0  0  0  0  0
  1  2  1  0  0  0  0
  2  3  1  0  0  0  0
  3  4  2  0  0  0  0
  4  5  2  0  0  0  0
  4  6  1  0  0  0  0
  6  7  1  0  0  0  0
  7  8  1  0  0  0  0
  4  9  1  0  0  0  0
  9 10  1  0  0  0  0
 10 11  1  0  0  0  0
 11 12  1  0  0  0  0
 12 13  2  0  0  0  0
 12 14  2  0  0  0  0
 14 15  1  0  0  0  0
 15 16  1  0  0  0  0
 12 17  2  0  0  0  0
 17 18  1  0  0  0  0
 18 19  1  0  0  0  0
  1 20  1  0  0  0  0
  1 21  1  0  0  0  0
  1 22  1  0  0  0  0
  2 23  1  0  0  0  0
  2 24  1  0  0  0  0
  7 25  1  0  0  0  0
  7 26  1  0  0  0  0
  8 27  1  0  0  0  0
  8 28  1  0  0  0  0
  8 29  1  0  0  0  0
 10 30  1  0  0  0  0
 10 31  1  0  0  0  0
 15 32  1  0  0  0  0
 15 33  1  0  0  0  0
 16 34  1  0  0  0  0
 16 35  1  0  0  0  0
 16 36  1  0  0  0  0
 18 37  1  0  0  0  0
 18 38  1  0  0  0  0
 19 39  1  0  0  0  0
 19 40  1  0  0  0  0
 19 41  1  0  0  0  0
M  END
