 xtb: 6.7.1 (edcfbbe)
          04092505213D

 41 40  0     0  0            999 V2000
    4.2713    0.1683   -2.3265 C   0  0  0  0  0  0  0  0  0  0  0  0
    4.3444    0.9520   -1.0319 C   0  0  0  0  0  0  0  0  0  0  0  0
    3.7420    0.2455    0.0655 O   0  0  0  0  0  0  0  0  0  0  0  0
    2.1834   -0.0521    0.1465 P   0  0  0  0  0  0  0  0  0  0  0  0
    1.0378    1.4359   -0.4465 S   0  0  0  0  0  0  0  0  0  0  0  0
    2.0140   -0.4889    1.6579 O   0  0  0  0  0  0  0  0  0  0  0  0
    1.7042    0.4505    2.7060 C   0  0  0  0  0  0  0  0  0  0  0  0
    2.8892    1.3320    3.0406 C   0  0  0  0  0  0  0  0  0  0  0  0
    1.9862   -1.9386   -0.7718 S   0  0  0  0  0  0  0  0  0  0  0  0
    0.2044   -1.9257   -1.1004 C   0  0  0  0  0  0  0  0  0  0  0  0
   -0.7900   -1.6048    0.3919 S   0  0  0  0  0  0  0  0  0  0  0  0
   -2.1175   -0.1448   -0.3941 P   0  0  0  0  0  0  0  0  0  0  0  0
   -1.9280    0.4144   -2.2537 S   0  0  0  0  0  0  0  0  0  0  0  0
   -2.0737    1.0694    0.6253 O   0  0  0  0  0  0  0  0  0  0  0  0
   -2.2721    0.8780    2.0464 C   0  0  0  0  0  0  0  0  0  0  0  0
   -2.1265    2.2296    2.7137 C   0  0  0  0  0  0  0  0  0  0  0  0
   -3.4721   -0.9389   -0.0756 O   0  0  0  0  0  0  0  0  0  0  0  0
   -4.6903   -0.6846   -0.7997 C   0  0  0  0  0  0  0  0  0  0  0  0
   -5.2975    0.6524   -0.4239 C   0  0  0  0  0  0  0  0  0  0  0  0
    4.6691   -0.8335   -2.1850 H   0  0  0  0  0  0  0  0  0  0  0  0
    3.2358    0.0904   -2.6567 H   0  0  0  0  0  0  0  0  0  0  0  0
    4.8449    0.6819   -3.0914 H   0  0  0  0  0  0  0  0  0  0  0  0
    3.8400    1.9178   -1.1395 H   0  0  0  0  0  0  0  0  0  0  0  0
    5.3756    1.1038   -0.7101 H   0  0  0  0  0  0  0  0  0  0  0  0
    0.8523    1.0585    2.3836 H   0  0  0  0  0  0  0  0  0  0  0  0
    1.4156   -0.1814    3.5470 H   0  0  0  0  0  0  0  0  0  0  0  0
    3.7604    0.7200    3.2575 H   0  0  0  0  0  0  0  0  0  0  0  0
    3.1175    1.9817    2.1968 H   0  0  0  0  0  0  0  0  0  0  0  0
    2.6504    1.9438    3.9050 H   0  0  0  0  0  0  0  0  0  0  0  0
   -0.0332   -2.9180   -1.4758 H   0  0  0  0  0  0  0  0  0  0  0  0
   -0.0332   -1.1582   -1.8429 H   0  0  0  0  0  0  0  0  0  0  0  0
   -3.2659    0.4516    2.2040 H   0  0  0  0  0  0  0  0  0  0  0  0
   -1.5223    0.1655    2.4054 H   0  0  0  0  0  0  0  0  0  0  0  0
   -2.8961    2.9076    2.3566 H   0  0  0  0  0  0  0  0  0  0  0  0
   -2.2177    2.1100    3.7882 H   0  0  0  0  0  0  0  0  0  0  0  0
   -1.1559    2.6577    2.4771 H   0  0  0  0  0  0  0  0  0  0  0  0
   -4.4698   -0.7173   -1.8712 H   0  0  0  0  0  0  0  0  0  0  0  0
   -5.3386   -1.5184   -0.5274 H   0  0  0  0  0  0  0  0  0  0  0  0
   -6.2193    0.7978   -0.9782 H   0  0  0  0  0  0  0  0  0  0  0  0
   -5.5100    0.6907    0.6415 H   0  0  0  0  0  0  0  0  0  0  0  0
   -4.6031    1.4539   -0.6772 H   0  0  0  0  0  0  0  0  0  0  0  0
  1  2  1  0  0  0  0
  2  3  1  0  0  0  0
  3  4  2  0  0  0  0
  4  5  2  0  0  0  0
  4  6  2  0  0  0  0
  6  7  1  0  0  0  0
  7  8  1  0  0  0  0
  4  9  1  0  0  0  0
  9 10  1  0  0  0  0
 10 11  1  0  0  0  0
 11 12  1  0  0  0  0
 12 13  2  0  0  0  0
 12 14  2  0  0  0  0
 14 15  1  0  0  0  0
 15 16  1  0  0  0  0
 12 17  1  0  0  0  0
 17 18  1  0  0  0  0
 18 19  1  0  0  0  0
  1 20  1  0  0  0  0
  1 21  1  0  0  0  0
  1 22  1  0  0  0  0
  2 23  1  0  0  0  0
  2 24  1  0  0  0  0
  7 25  1  0  0  0  0
  7 26  1  0  0  0  0
  8 27  1  0  0  0  0
  8 28  1  0  0  0  0
  8 29  1  0  0  0  0
 10 30  1  0  0  0  0
 10 31  1  0  0  0  0
 15 32  1  0  0  0  0
 15 33  1  0  0  0  0
 16 34  1  0  0  0  0
 16 35  1  0  0  0  0
 16 36  1  0  0  0  0
 18 37  1  0  0  0  0
 18 38  1  0  0  0  0
 19 39  1  0  0  0  0
 19 40  1  0  0  0  0
 19 41  1  0  0  0  0
M  END
