 xtb: 6.7.1 (edcfbbe)
          04092505203D

 41 40  0     0  0            999 V2000
    3.4540   -2.1713   -1.7649 C   0  0  0  0  0  0  0  0  0  0  0  0
    4.0145   -0.8441   -1.2939 C   0  0  0  0  0  0  0  0  0  0  0  0
    3.4051   -0.4040   -0.0712 O   0  0  0  0  0  0  0  0  0  0  0  0
    1.9238    0.1823    0.0442 P   0  0  0  0  0  0  0  0  0  0  0  0
    1.2828    0.9173   -1.6588 S   0  0  0  0  0  0  0  0  0  0  0  0
    2.0664    1.1752    1.2675 O   0  0  0  0  0  0  0  0  0  0  0  0
    2.2771    2.5889    1.0998 C   0  0  0  0  0  0  0  0  0  0  0  0
    3.6483    2.8927    0.5323 C   0  0  0  0  0  0  0  0  0  0  0  0
    0.9120   -1.2881    1.1904 S   0  0  0  0  0  0  0  0  0  0  0  0
    0.1346   -2.3626   -0.0529 C   0  0  0  0  0  0  0  0  0  0  0  0
   -1.0296   -1.5220   -1.1766 S   0  0  0  0  0  0  0  0  0  0  0  0
   -1.9859   -0.1915    0.1532 P   0  0  0  0  0  0  0  0  0  0  0  0
   -1.1733    1.4783    0.8147 S   0  0  0  0  0  0  0  0  0  0  0  0
   -2.3935   -1.2377    1.2664 O   0  0  0  0  0  0  0  0  0  0  0  0
   -2.7517   -0.8460    2.6071 C   0  0  0  0  0  0  0  0  0  0  0  0
   -4.0987   -0.1558    2.6441 C   0  0  0  0  0  0  0  0  0  0  0  0
   -3.3612    0.0783   -0.5987 O   0  0  0  0  0  0  0  0  0  0  0  0
   -3.5390    1.1682   -1.5170 C   0  0  0  0  0  0  0  0  0  0  0  0
   -2.7115    0.9879   -2.7736 C   0  0  0  0  0  0  0  0  0  0  0  0
    2.4241   -2.0371   -2.0948 H   0  0  0  0  0  0  0  0  0  0  0  0
    4.0414   -2.5316   -2.6035 H   0  0  0  0  0  0  0  0  0  0  0  0
    3.4913   -2.9018   -0.9603 H   0  0  0  0  0  0  0  0  0  0  0  0
    3.8634   -0.0754   -2.0583 H   0  0  0  0  0  0  0  0  0  0  0  0
    5.0735   -0.9197   -1.0442 H   0  0  0  0  0  0  0  0  0  0  0  0
    1.4852    2.9818    0.4530 H   0  0  0  0  0  0  0  0  0  0  0  0
    2.1530    2.9916    2.1062 H   0  0  0  0  0  0  0  0  0  0  0  0
    3.7214    2.5091   -0.4849 H   0  0  0  0  0  0  0  0  0  0  0  0
    3.7994    3.9674    0.5160 H   0  0  0  0  0  0  0  0  0  0  0  0
    4.4168    2.4255    1.1427 H   0  0  0  0  0  0  0  0  0  0  0  0
   -0.4073   -3.1099    0.5229 H   0  0  0  0  0  0  0  0  0  0  0  0
    0.8845   -2.8299   -0.6871 H   0  0  0  0  0  0  0  0  0  0  0  0
   -2.7594   -1.7856    3.1607 H   0  0  0  0  0  0  0  0  0  0  0  0
   -1.9670   -0.1903    2.9988 H   0  0  0  0  0  0  0  0  0  0  0  0
   -4.8527   -0.7800    2.1720 H   0  0  0  0  0  0  0  0  0  0  0  0
   -4.3780    0.0361    3.6752 H   0  0  0  0  0  0  0  0  0  0  0  0
   -4.0420    0.7918    2.1096 H   0  0  0  0  0  0  0  0  0  0  0  0
   -4.6083    1.1598   -1.7318 H   0  0  0  0  0  0  0  0  0  0  0  0
   -3.2662    2.0990   -1.0082 H   0  0  0  0  0  0  0  0  0  0  0  0
   -2.9166    0.0213   -3.2270 H   0  0  0  0  0  0  0  0  0  0  0  0
   -2.9466    1.7775   -3.4800 H   0  0  0  0  0  0  0  0  0  0  0  0
   -1.6483    1.0406   -2.5338 H   0  0  0  0  0  0  0  0  0  0  0  0
  1  2  1  0  0  0  0
  2  3  1  0  0  0  0
  3  4  2  0  0  0  0
  4  5  2  0  0  0  0
  4  6  2  0  0  0  0
  6  7  1  0  0  0  0
  7  8  1  0  0  0  0
  4  9  1  0  0  0  0
  9 10  1  0  0  0  0
 10 11  1  0  0  0  0
 11 12  1  0  0  0  0
 12 13  2  0  0  0  0
 12 14  2  0  0  0  0
 14 15  1  0  0  0  0
 15 16  1  0  0  0  0
 12 17  2  0  0  0  0
 17 18  1  0  0  0  0
 18 19  1  0  0  0  0
  1 20  1  0  0  0  0
  1 21  1  0  0  0  0
  1 22  1  0  0  0  0
  2 23  1  0  0  0  0
  2 24  1  0  0  0  0
  7 25  1  0  0  0  0
  7 26  1  0  0  0  0
  8 27  1  0  0  0  0
  8 28  1  0  0  0  0
  8 29  1  0  0  0  0
 10 30  1  0  0  0  0
 10 31  1  0  0  0  0
 15 32  1  0  0  0  0
 15 33  1  0  0  0  0
 16 34  1  0  0  0  0
 16 35  1  0  0  0  0
 16 36  1  0  0  0  0
 18 37  1  0  0  0  0
 18 38  1  0  0  0  0
 19 39  1  0  0  0  0
 19 40  1  0  0  0  0
 19 41  1  0  0  0  0
M  END
