 xtb: 6.7.1 (edcfbbe)
          04092507313D

 38 37  0     0  0            999 V2000
    5.3587   -2.2020   -0.5481 C   0  0  0  0  0  0  0  0  0  0  0  0
    4.6283   -1.0729    0.1613 C   0  0  0  0  0  0  0  0  0  0  0  0
    3.2049   -1.2988    0.1677 O   0  0  0  0  0  0  0  0  0  0  0  0
    2.5072   -0.9130   -0.8784 C   0  0  0  0  0  0  0  0  0  0  0  0
    2.9678   -0.3602   -1.8533 O   0  0  0  0  0  0  0  0  0  0  0  0
    1.0360   -1.2558   -0.7217 C   0  0  0  0  0  0  0  0  0  0  0  0
    0.1966   -0.1190   -1.2889 C   0  0  0  0  0  0  0  0  0  0  0  0
    0.5680    0.1286   -2.2911 H   0  0  0  0  0  0  0  0  0  0  0  0
    0.2638    1.1456   -0.4561 C   0  0  0  0  0  0  0  0  0  0  0  0
   -0.6740    1.9125   -0.3541 O   0  0  0  0  0  0  0  0  0  0  0  0
    1.4364    1.3200    0.0879 O   0  0  0  0  0  0  0  0  0  0  0  0
    1.6191    2.4766    0.9335 C   0  0  0  0  0  0  0  0  0  0  0  0
    3.0692    2.5100    1.3695 C   0  0  0  0  0  0  0  0  0  0  0  0
   -1.5494   -0.5511   -1.5312 S   0  0  0  0  0  0  0  0  0  0  0  0
   -2.3039   -0.2405    0.4432 P   0  0  0  0  0  0  0  0  0  0  0  0
   -1.0772   -0.0891    1.9612 S   0  0  0  0  0  0  0  0  0  0  0  0
   -3.4639    0.8522    0.3337 O   0  0  0  0  0  0  0  0  0  0  0  0
   -3.3564    2.2650    0.5076 C   0  0  0  0  0  0  0  0  0  0  0  0
   -3.1880   -1.5398    0.6473 O   0  0  0  0  0  0  0  0  0  0  0  0
   -4.2274   -1.9341   -0.2674 C   0  0  0  0  0  0  0  0  0  0  0  0
    5.1066   -3.1554   -0.0920 H   0  0  0  0  0  0  0  0  0  0  0  0
    5.0793   -2.2260   -1.5989 H   0  0  0  0  0  0  0  0  0  0  0  0
    6.4288   -2.0403   -0.4717 H   0  0  0  0  0  0  0  0  0  0  0  0
    4.8250   -0.1158   -0.3295 H   0  0  0  0  0  0  0  0  0  0  0  0
    4.9003   -1.0247    1.2157 H   0  0  0  0  0  0  0  0  0  0  0  0
    0.8175   -1.4351    0.3319 H   0  0  0  0  0  0  0  0  0  0  0  0
    0.8348   -2.1661   -1.2903 H   0  0  0  0  0  0  0  0  0  0  0  0
    1.3373    3.3669    0.3637 H   0  0  0  0  0  0  0  0  0  0  0  0
    0.9389    2.3711    1.7849 H   0  0  0  0  0  0  0  0  0  0  0  0
    3.3083    1.6067    1.9228 H   0  0  0  0  0  0  0  0  0  0  0  0
    3.7180    2.5764    0.5008 H   0  0  0  0  0  0  0  0  0  0  0  0
    3.2304    3.3737    2.0056 H   0  0  0  0  0  0  0  0  0  0  0  0
   -4.3634    2.6026    0.7425 H   0  0  0  0  0  0  0  0  0  0  0  0
   -2.9916    2.7270   -0.4076 H   0  0  0  0  0  0  0  0  0  0  0  0
   -2.6733    2.4958    1.3250 H   0  0  0  0  0  0  0  0  0  0  0  0
   -4.5442   -2.9172    0.0712 H   0  0  0  0  0  0  0  0  0  0  0  0
   -3.8317   -1.9836   -1.2821 H   0  0  0  0  0  0  0  0  0  0  0  0
   -5.0501   -1.2235   -0.2202 H   0  0  0  0  0  0  0  0  0  0  0  0
  1  2  1  0  0  0  0
  2  3  1  0  0  0  0
  3  4  1  0  0  0  0
  4  5  2  0  0  0  0
  4  6  1  0  0  0  0
  6  7  1  0  0  0  0
  7  8  1  0  0  0  0
  7  9  1  0  0  0  0
  9 10  2  0  0  0  0
  9 11  4  0  0  0  0
 11 12  1  0  0  0  0
 12 13  1  0  0  0  0
  7 14  1  0  0  0  0
 14 15  1  0  0  0  0
 15 16  2  0  0  0  0
 15 17  2  0  0  0  0
 17 18  1  0  0  0  0
 15 19  2  0  0  0  0
 19 20  1  0  0  0  0
  1 21  1  0  0  0  0
  1 22  1  0  0  0  0
  1 23  1  0  0  0  0
  2 24  1  0  0  0  0
  2 25  1  0  0  0  0
  6 26  1  0  0  0  0
  6 27  1  0  0  0  0
 12 28  1  0  0  0  0
 12 29  1  0  0  0  0
 13 30  1  0  0  0  0
 13 31  1  0  0  0  0
 13 32  1  0  0  0  0
 18 33  1  0  0  0  0
 18 34  1  0  0  0  0
 18 35  1  0  0  0  0
 20 36  1  0  0  0  0
 20 37  1  0  0  0  0
 20 38  1  0  0  0  0
M  END
