 xtb: 6.7.1 (edcfbbe)
          04032520213D

 16 16  0     0  0            999 V2000
   -0.7506   -1.1717    0.3240 C   0  0  0  0  0  0  0  0  0  0  0  0
    0.7467   -1.2786    0.0141 C   0  0  0  0  0  0  0  0  0  0  0  0
    1.4094    0.0786   -0.3082 C   0  0  0  0  0  0  0  0  0  0  0  0
    0.6435    1.2537    0.2150 C   0  0  0  0  0  0  0  0  0  0  0  0
   -0.6782    1.2655    0.1465 C   0  0  0  0  0  0  0  0  0  0  0  0
   -1.3817    0.0454   -0.3597 C   0  0  0  0  0  0  0  0  0  0  0  0
   -0.8948   -1.0610    1.4010 H   0  0  0  0  0  0  0  0  0  0  0  0
   -1.2589   -2.0851    0.0127 H   0  0  0  0  0  0  0  0  0  0  0  0
    1.2496   -1.7292    0.8708 H   0  0  0  0  0  0  0  0  0  0  0  0
    0.8970   -1.9455   -0.8362 H   0  0  0  0  0  0  0  0  0  0  0  0
    2.4313    0.0913    0.0717 H   0  0  0  0  0  0  0  0  0  0  0  0
    1.4687    0.1864   -1.3961 H   0  0  0  0  0  0  0  0  0  0  0  0
    1.2048    2.0925    0.5990 H   0  0  0  0  0  0  0  0  0  0  0  0
   -1.2647    2.1046    0.4884 H   0  0  0  0  0  0  0  0  0  0  0  0
   -2.4497    0.0893   -0.1460 H   0  0  0  0  0  0  0  0  0  0  0  0
   -1.2528   -0.0416   -1.4423 H   0  0  0  0  0  0  0  0  0  0  0  0
  1  2  1  0  0  0  0
  2  3  1  0  0  0  0
  3  4  1  0  0  0  0
  4  5  2  0  0  0  0
  1  6  1  0  0  0  0
  5  6  1  0  0  0  0
  1  7  1  0  0  0  0
  1  8  1  0  0  0  0
  2  9  1  0  0  0  0
  2 10  1  0  0  0  0
  3 11  1  0  0  0  0
  3 12  1  0  0  0  0
  4 13  1  0  0  0  0
  5 14  1  0  0  0  0
  6 15  1  0  0  0  0
  6 16  1  0  0  0  0
M  END
