 xtb: 6.7.1 (edcfbbe)
          04092505203D

 41 40  0     0  0            999 V2000
    2.0943   -1.5468    3.0917 C   0  0  0  0  0  0  0  0  0  0  0  0
    1.1865   -1.3060    1.9013 C   0  0  0  0  0  0  0  0  0  0  0  0
    1.5135   -0.0427    1.3011 O   0  0  0  0  0  0  0  0  0  0  0  0
    2.1103    0.1494   -0.1618 P   0  0  0  0  0  0  0  0  0  0  0  0
    2.8677   -1.4852   -0.9437 S   0  0  0  0  0  0  0  0  0  0  0  0
    3.0268    1.4279    0.0196 O   0  0  0  0  0  0  0  0  0  0  0  0
    4.0499    1.5377    1.0330 C   0  0  0  0  0  0  0  0  0  0  0  0
    5.2889    0.7402    0.6768 C   0  0  0  0  0  0  0  0  0  0  0  0
    0.6683    1.1461   -1.3453 S   0  0  0  0  0  0  0  0  0  0  0  0
   -0.0842   -0.3320   -2.0736 C   0  0  0  0  0  0  0  0  0  0  0  0
   -0.8615   -1.4099   -0.8373 S   0  0  0  0  0  0  0  0  0  0  0  0
   -2.2841   -0.0136   -0.1488 P   0  0  0  0  0  0  0  0  0  0  0  0
   -3.0885    1.2044   -1.4616 S   0  0  0  0  0  0  0  0  0  0  0  0
   -1.4591    0.6538    1.0273 O   0  0  0  0  0  0  0  0  0  0  0  0
   -1.8185    1.9253    1.6140 C   0  0  0  0  0  0  0  0  0  0  0  0
   -0.5468    2.6705    1.9656 C   0  0  0  0  0  0  0  0  0  0  0  0
   -3.3331   -0.8783    0.6768 O   0  0  0  0  0  0  0  0  0  0  0  0
   -4.5133   -1.4422    0.0769 C   0  0  0  0  0  0  0  0  0  0  0  0
   -4.1792   -2.5422   -0.9095 C   0  0  0  0  0  0  0  0  0  0  0  0
    1.8030   -2.4723    3.5774 H   0  0  0  0  0  0  0  0  0  0  0  0
    3.1272   -1.6308    2.7608 H   0  0  0  0  0  0  0  0  0  0  0  0
    2.0129   -0.7284    3.8018 H   0  0  0  0  0  0  0  0  0  0  0  0
    0.1371   -1.2397    2.1973 H   0  0  0  0  0  0  0  0  0  0  0  0
    1.3037   -2.1004    1.1566 H   0  0  0  0  0  0  0  0  0  0  0  0
    4.2628    2.6076    1.0680 H   0  0  0  0  0  0  0  0  0  0  0  0
    3.6334    1.2128    1.9897 H   0  0  0  0  0  0  0  0  0  0  0  0
    6.0529    0.9076    1.4296 H   0  0  0  0  0  0  0  0  0  0  0  0
    5.0582   -0.3227    0.6328 H   0  0  0  0  0  0  0  0  0  0  0  0
    5.6671    1.0486   -0.2944 H   0  0  0  0  0  0  0  0  0  0  0  0
    0.6792   -0.9334   -2.5668 H   0  0  0  0  0  0  0  0  0  0  0  0
   -0.8356    0.0180   -2.7803 H   0  0  0  0  0  0  0  0  0  0  0  0
   -2.4216    2.4877    0.8927 H   0  0  0  0  0  0  0  0  0  0  0  0
   -2.4190    1.7149    2.5019 H   0  0  0  0  0  0  0  0  0  0  0  0
    0.0634    2.0695    2.6339 H   0  0  0  0  0  0  0  0  0  0  0  0
    0.0263    2.8813    1.0654 H   0  0  0  0  0  0  0  0  0  0  0  0
   -0.8050    3.6053    2.4524 H   0  0  0  0  0  0  0  0  0  0  0  0
   -5.0835   -1.8200    0.9264 H   0  0  0  0  0  0  0  0  0  0  0  0
   -5.0663   -0.6368   -0.4169 H   0  0  0  0  0  0  0  0  0  0  0  0
   -3.5373   -3.2860   -0.4442 H   0  0  0  0  0  0  0  0  0  0  0  0
   -5.0966   -3.0150   -1.2453 H   0  0  0  0  0  0  0  0  0  0  0  0
   -3.6616   -2.1241   -1.7720 H   0  0  0  0  0  0  0  0  0  0  0  0
  1  2  1  0  0  0  0
  2  3  1  0  0  0  0
  3  4  2  0  0  0  0
  4  5  2  0  0  0  0
  4  6  2  0  0  0  0
  6  7  1  0  0  0  0
  7  8  1  0  0  0  0
  4  9  1  0  0  0  0
  9 10  1  0  0  0  0
 10 11  1  0  0  0  0
 11 12  1  0  0  0  0
 12 13  2  0  0  0  0
 12 14  2  0  0  0  0
 14 15  1  0  0  0  0
 15 16  1  0  0  0  0
 12 17  2  0  0  0  0
 17 18  1  0  0  0  0
 18 19  1  0  0  0  0
  1 20  1  0  0  0  0
  1 21  1  0  0  0  0
  1 22  1  0  0  0  0
  2 23  1  0  0  0  0
  2 24  1  0  0  0  0
  7 25  1  0  0  0  0
  7 26  1  0  0  0  0
  8 27  1  0  0  0  0
  8 28  1  0  0  0  0
  8 29  1  0  0  0  0
 10 30  1  0  0  0  0
 10 31  1  0  0  0  0
 15 32  1  0  0  0  0
 15 33  1  0  0  0  0
 16 34  1  0  0  0  0
 16 35  1  0  0  0  0
 16 36  1  0  0  0  0
 18 37  1  0  0  0  0
 18 38  1  0  0  0  0
 19 39  1  0  0  0  0
 19 40  1  0  0  0  0
 19 41  1  0  0  0  0
M  END
