 xtb: 6.7.1 (edcfbbe)
          04032519423D

 20 20  0     0  0            999 V2000
    0.6146    1.7001   -0.0498 C   0  0  0  0  0  0  0  0  0  0  0  0
    1.4023    0.4021   -0.2878 C   0  0  0  0  0  0  0  0  0  0  0  0
    1.5857    0.2780   -1.3670 H   0  0  0  0  0  0  0  0  0  0  0  0
    0.5561   -0.7886    0.2010 C   0  0  0  0  0  0  0  0  0  0  0  0
    0.4076   -0.6916    1.2819 H   0  0  0  0  0  0  0  0  0  0  0  0
   -0.8076   -0.7459   -0.5151 C   0  0  0  0  0  0  0  0  0  0  0  0
   -0.6536   -0.8548   -1.5947 H   0  0  0  0  0  0  0  0  0  0  0  0
   -1.4769    0.6203   -0.2587 C   0  0  0  0  0  0  0  0  0  0  0  0
   -2.3796    0.7030   -0.8806 H   0  0  0  0  0  0  0  0  0  0  0  0
   -0.6550    1.6780   -0.6844 O   0  0  0  0  0  0  0  0  0  0  0  0
   -1.7837    0.6933    1.0975 O   0  0  0  0  0  0  0  0  0  0  0  0
   -1.6511   -1.7991   -0.1443 O   0  0  0  0  0  0  0  0  0  0  0  0
    1.2012   -2.0218    0.0356 O   0  0  0  0  0  0  0  0  0  0  0  0
    2.6128    0.4028    0.4273 O   0  0  0  0  0  0  0  0  0  0  0  0
    1.1284    2.5601   -0.4801 H   0  0  0  0  0  0  0  0  0  0  0  0
    0.4990    1.8409    1.0318 H   0  0  0  0  0  0  0  0  0  0  0  0
   -2.3464    1.4616    1.2769 H   0  0  0  0  0  0  0  0  0  0  0  0
   -1.8548   -1.7200    0.8002 H   0  0  0  0  0  0  0  0  0  0  0  0
    1.3488   -2.1954   -0.9053 H   0  0  0  0  0  0  0  0  0  0  0  0
    3.2073    1.0775    0.0694 H   0  0  0  0  0  0  0  0  0  0  0  0
  1  2  1  0  0  0  0
  2  3  1  0  0  0  0
  2  4  1  0  0  0  0
  4  5  1  0  0  0  0
  4  6  1  0  0  0  0
  6  7  1  0  0  0  0
  6  8  1  0  0  0  0
  8  9  1  0  0  0  0
  1 10  1  0  0  0  0
  8 10  1  0  0  0  0
  8 11  1  0  0  0  0
  6 12  1  0  0  0  0
  4 13  1  0  0  0  0
  2 14  1  0  0  0  0
  1 15  1  0  0  0  0
  1 16  1  0  0  0  0
 11 17  1  0  0  0  0
 12 18  1  0  0  0  0
 13 19  1  0  0  0  0
 14 20  1  0  0  0  0
M  END
