 xtb: 6.7.1 (edcfbbe)
          04092507313D

 38 37  0     0  0            999 V2000
    3.3568   -1.5897    1.5876 C   0  0  0  0  0  0  0  0  0  0  0  0
    3.0217   -2.2935    0.2831 C   0  0  0  0  0  0  0  0  0  0  0  0
    2.7167   -1.3213   -0.7354 O   0  0  0  0  0  0  0  0  0  0  0  0
    1.4735   -1.1153   -1.0896 C   0  0  0  0  0  0  0  0  0  0  0  0
    0.5143   -1.7275   -0.6497 O   0  0  0  0  0  0  0  0  0  0  0  0
    1.3471   -0.0292   -2.1328 C   0  0  0  0  0  0  0  0  0  0  0  0
    0.2475    0.9564   -1.7518 C   0  0  0  0  0  0  0  0  0  0  0  0
    0.1269    1.7020   -2.5443 H   0  0  0  0  0  0  0  0  0  0  0  0
    0.4912    1.7048   -0.4495 C   0  0  0  0  0  0  0  0  0  0  0  0
   -0.4054    2.2521    0.1562 O   0  0  0  0  0  0  0  0  0  0  0  0
    1.7537    1.6960   -0.1049 O   0  0  0  0  0  0  0  0  0  0  0  0
    2.1353    2.3760    1.1085 C   0  0  0  0  0  0  0  0  0  0  0  0
    2.2456    3.8755    0.8900 C   0  0  0  0  0  0  0  0  0  0  0  0
   -1.4135    0.1969   -1.6523 S   0  0  0  0  0  0  0  0  0  0  0  0
   -1.5609   -0.5563    0.3412 P   0  0  0  0  0  0  0  0  0  0  0  0
   -0.2752   -0.3376    1.8035 S   0  0  0  0  0  0  0  0  0  0  0  0
   -2.9977    0.0634    0.7446 O   0  0  0  0  0  0  0  0  0  0  0  0
   -3.1971    1.4291    1.1020 C   0  0  0  0  0  0  0  0  0  0  0  0
   -2.0062   -2.0666    0.2102 O   0  0  0  0  0  0  0  0  0  0  0  0
   -3.0046   -2.5179   -0.7215 C   0  0  0  0  0  0  0  0  0  0  0  0
    2.4852   -1.0520    1.9578 H   0  0  0  0  0  0  0  0  0  0  0  0
    3.6519   -2.3268    2.3267 H   0  0  0  0  0  0  0  0  0  0  0  0
    4.1708   -0.8876    1.4333 H   0  0  0  0  0  0  0  0  0  0  0  0
    2.1617   -2.9575    0.4068 H   0  0  0  0  0  0  0  0  0  0  0  0
    3.8797   -2.8474   -0.1011 H   0  0  0  0  0  0  0  0  0  0  0  0
    1.0812   -0.4971   -3.0826 H   0  0  0  0  0  0  0  0  0  0  0  0
    2.3019    0.4868   -2.2253 H   0  0  0  0  0  0  0  0  0  0  0  0
    1.3982    2.1378    1.8811 H   0  0  0  0  0  0  0  0  0  0  0  0
    3.0986    1.9351    1.3636 H   0  0  0  0  0  0  0  0  0  0  0  0
    1.2720    4.2915    0.6414 H   0  0  0  0  0  0  0  0  0  0  0  0
    2.6026    4.3399    1.8030 H   0  0  0  0  0  0  0  0  0  0  0  0
    2.9421    4.0865    0.0832 H   0  0  0  0  0  0  0  0  0  0  0  0
   -4.2062    1.4819    1.5026 H   0  0  0  0  0  0  0  0  0  0  0  0
   -3.0919    2.0666    0.2242 H   0  0  0  0  0  0  0  0  0  0  0  0
   -2.4674    1.7334    1.8538 H   0  0  0  0  0  0  0  0  0  0  0  0
   -3.9440   -1.9955   -0.5463 H   0  0  0  0  0  0  0  0  0  0  0  0
   -3.1098   -3.5818   -0.5250 H   0  0  0  0  0  0  0  0  0  0  0  0
   -2.6630   -2.3471   -1.7425 H   0  0  0  0  0  0  0  0  0  0  0  0
  1  2  1  0  0  0  0
  2  3  1  0  0  0  0
  3  4  4  0  0  0  0
  4  5  2  0  0  0  0
  4  6  1  0  0  0  0
  6  7  1  0  0  0  0
  7  8  1  0  0  0  0
  7  9  1  0  0  0  0
  9 10  2  0  0  0  0
  9 11  4  0  0  0  0
 11 12  1  0  0  0  0
 12 13  1  0  0  0  0
  7 14  1  0  0  0  0
 14 15  1  0  0  0  0
 15 16  2  0  0  0  0
 15 17  1  0  0  0  0
 17 18  1  0  0  0  0
 15 19  2  0  0  0  0
 19 20  1  0  0  0  0
  1 21  1  0  0  0  0
  1 22  1  0  0  0  0
  1 23  1  0  0  0  0
  2 24  1  0  0  0  0
  2 25  1  0  0  0  0
  6 26  1  0  0  0  0
  6 27  1  0  0  0  0
 12 28  1  0  0  0  0
 12 29  1  0  0  0  0
 13 30  1  0  0  0  0
 13 31  1  0  0  0  0
 13 32  1  0  0  0  0
 18 33  1  0  0  0  0
 18 34  1  0  0  0  0
 18 35  1  0  0  0  0
 20 36  1  0  0  0  0
 20 37  1  0  0  0  0
 20 38  1  0  0  0  0
M  END
