 xtb: 6.7.1 (edcfbbe)
          04092507313D

 38 37  0     0  0            999 V2000
    2.2704   -3.8737   -0.9580 C   0  0  0  0  0  0  0  0  0  0  0  0
    2.5355   -3.5308    0.4995 C   0  0  0  0  0  0  0  0  0  0  0  0
    2.7043   -2.1080    0.6613 O   0  0  0  0  0  0  0  0  0  0  0  0
    1.6385   -1.3628    0.8305 C   0  0  0  0  0  0  0  0  0  0  0  0
    0.5064   -1.8044    0.9117 O   0  0  0  0  0  0  0  0  0  0  0  0
    1.9783    0.1056    0.9186 C   0  0  0  0  0  0  0  0  0  0  0  0
    0.8856    0.9371    0.2645 C   0  0  0  0  0  0  0  0  0  0  0  0
    0.6798    0.5780   -0.7530 H   0  0  0  0  0  0  0  0  0  0  0  0
    1.2418    2.4147    0.1925 C   0  0  0  0  0  0  0  0  0  0  0  0
    2.2547    2.8820    0.6552 O   0  0  0  0  0  0  0  0  0  0  0  0
    0.3059    3.0933   -0.4354 O   0  0  0  0  0  0  0  0  0  0  0  0
    0.4924    4.5149   -0.6013 C   0  0  0  0  0  0  0  0  0  0  0  0
    1.3014    4.8134   -1.8531 C   0  0  0  0  0  0  0  0  0  0  0  0
   -0.7078    0.8102    1.1709 S   0  0  0  0  0  0  0  0  0  0  0  0
   -1.6770   -0.6467   -0.0397 P   0  0  0  0  0  0  0  0  0  0  0  0
   -0.8217   -1.1945   -1.7242 S   0  0  0  0  0  0  0  0  0  0  0  0
   -2.2993   -1.7575    0.8963 O   0  0  0  0  0  0  0  0  0  0  0  0
   -1.9456   -3.1424    0.9028 C   0  0  0  0  0  0  0  0  0  0  0  0
   -3.0795    0.0866   -0.3012 O   0  0  0  0  0  0  0  0  0  0  0  0
   -3.1324    1.2714   -1.0988 C   0  0  0  0  0  0  0  0  0  0  0  0
    1.3579   -3.3889   -1.3015 H   0  0  0  0  0  0  0  0  0  0  0  0
    3.0953   -3.5360   -1.5788 H   0  0  0  0  0  0  0  0  0  0  0  0
    2.1590   -4.9477   -1.0618 H   0  0  0  0  0  0  0  0  0  0  0  0
    3.4762   -3.9585    0.8454 H   0  0  0  0  0  0  0  0  0  0  0  0
    1.7082   -3.8611    1.1335 H   0  0  0  0  0  0  0  0  0  0  0  0
    2.9356    0.2860    0.4290 H   0  0  0  0  0  0  0  0  0  0  0  0
    2.0735    0.3867    1.9701 H   0  0  0  0  0  0  0  0  0  0  0  0
   -0.5186    4.9149   -0.6753 H   0  0  0  0  0  0  0  0  0  0  0  0
    0.9942    4.9042    0.2885 H   0  0  0  0  0  0  0  0  0  0  0  0
    2.3085    4.4160   -1.7520 H   0  0  0  0  0  0  0  0  0  0  0  0
    0.8280    4.3635   -2.7214 H   0  0  0  0  0  0  0  0  0  0  0  0
    1.3590    5.8877   -1.9932 H   0  0  0  0  0  0  0  0  0  0  0  0
   -1.2932   -3.3369    1.7517 H   0  0  0  0  0  0  0  0  0  0  0  0
   -1.4365   -3.4124   -0.0235 H   0  0  0  0  0  0  0  0  0  0  0  0
   -2.8799   -3.6920    0.9965 H   0  0  0  0  0  0  0  0  0  0  0  0
   -2.5407    2.0660   -0.6404 H   0  0  0  0  0  0  0  0  0  0  0  0
   -4.1819    1.5507   -1.1378 H   0  0  0  0  0  0  0  0  0  0  0  0
   -2.7543    1.0638   -2.1018 H   0  0  0  0  0  0  0  0  0  0  0  0
  1  2  1  0  0  0  0
  2  3  1  0  0  0  0
  3  4  4  0  0  0  0
  4  5  2  0  0  0  0
  4  6  1  0  0  0  0
  6  7  1  0  0  0  0
  7  8  1  0  0  0  0
  7  9  1  0  0  0  0
  9 10  2  0  0  0  0
  9 11  1  0  0  0  0
 11 12  1  0  0  0  0
 12 13  1  0  0  0  0
  7 14  1  0  0  0  0
 14 15  1  0  0  0  0
 15 16  2  0  0  0  0
 15 17  2  0  0  0  0
 17 18  1  0  0  0  0
 15 19  1  0  0  0  0
 19 20  1  0  0  0  0
  1 21  1  0  0  0  0
  1 22  1  0  0  0  0
  1 23  1  0  0  0  0
  2 24  1  0  0  0  0
  2 25  1  0  0  0  0
  6 26  1  0  0  0  0
  6 27  1  0  0  0  0
 12 28  1  0  0  0  0
 12 29  1  0  0  0  0
 13 30  1  0  0  0  0
 13 31  1  0  0  0  0
 13 32  1  0  0  0  0
 18 33  1  0  0  0  0
 18 34  1  0  0  0  0
 18 35  1  0  0  0  0
 20 36  1  0  0  0  0
 20 37  1  0  0  0  0
 20 38  1  0  0  0  0
M  END
