 xtb: 6.7.1 (edcfbbe)
          04092505203D

 41 40  0     0  0            999 V2000
    5.3125   -2.0880   -1.3412 C   0  0  0  0  0  0  0  0  0  0  0  0
    4.2832   -0.9797   -1.4351 C   0  0  0  0  0  0  0  0  0  0  0  0
    3.2150   -1.2877   -0.5168 O   0  0  0  0  0  0  0  0  0  0  0  0
    2.2256   -0.1707    0.0225 P   0  0  0  0  0  0  0  0  0  0  0  0
    3.0806    1.4732    0.6713 S   0  0  0  0  0  0  0  0  0  0  0  0
    1.3669   -0.9834    1.0726 O   0  0  0  0  0  0  0  0  0  0  0  0
    1.6778   -0.9559    2.4841 C   0  0  0  0  0  0  0  0  0  0  0  0
    2.9758   -1.6759    2.7800 C   0  0  0  0  0  0  0  0  0  0  0  0
    0.8500    0.0694   -1.5670 S   0  0  0  0  0  0  0  0  0  0  0  0
    0.1129    1.6080   -0.9480 C   0  0  0  0  0  0  0  0  0  0  0  0
   -0.8752    1.3653    0.5441 S   0  0  0  0  0  0  0  0  0  0  0  0
   -2.4415    0.2608   -0.4077 P   0  0  0  0  0  0  0  0  0  0  0  0
   -2.9049    0.8302   -2.2173 S   0  0  0  0  0  0  0  0  0  0  0  0
   -3.6177    0.2879    0.6607 O   0  0  0  0  0  0  0  0  0  0  0  0
   -4.5993    1.3404    0.7078 C   0  0  0  0  0  0  0  0  0  0  0  0
   -3.9989    2.6753    1.0971 C   0  0  0  0  0  0  0  0  0  0  0  0
   -1.9728   -1.2441   -0.3616 O   0  0  0  0  0  0  0  0  0  0  0  0
   -1.7216   -1.9619    0.8710 C   0  0  0  0  0  0  0  0  0  0  0  0
   -2.8980   -2.8521    1.2134 C   0  0  0  0  0  0  0  0  0  0  0  0
    5.7293   -2.1296   -0.3389 H   0  0  0  0  0  0  0  0  0  0  0  0
    4.8489   -3.0431   -1.5703 H   0  0  0  0  0  0  0  0  0  0  0  0
    6.1089   -1.8947   -2.0522 H   0  0  0  0  0  0  0  0  0  0  0  0
    3.8589   -0.9117   -2.4405 H   0  0  0  0  0  0  0  0  0  0  0  0
    4.7111   -0.0094   -1.1610 H   0  0  0  0  0  0  0  0  0  0  0  0
    1.7290    0.0888    2.8066 H   0  0  0  0  0  0  0  0  0  0  0  0
    0.8241   -1.4477    2.9516 H   0  0  0  0  0  0  0  0  0  0  0  0
    3.1335   -1.7097    3.8533 H   0  0  0  0  0  0  0  0  0  0  0  0
    2.9439   -2.6874    2.3841 H   0  0  0  0  0  0  0  0  0  0  0  0
    3.8051   -1.1423    2.3170 H   0  0  0  0  0  0  0  0  0  0  0  0
   -0.5235    1.9898   -1.7465 H   0  0  0  0  0  0  0  0  0  0  0  0
    0.9045    2.3128   -0.6933 H   0  0  0  0  0  0  0  0  0  0  0  0
   -5.0792    1.4058   -0.2733 H   0  0  0  0  0  0  0  0  0  0  0  0
   -5.3174    0.9909    1.4510 H   0  0  0  0  0  0  0  0  0  0  0  0
   -3.4180    2.5792    2.0110 H   0  0  0  0  0  0  0  0  0  0  0  0
   -3.3474    3.0380    0.3036 H   0  0  0  0  0  0  0  0  0  0  0  0
   -4.7971    3.3944    1.2509 H   0  0  0  0  0  0  0  0  0  0  0  0
   -0.8193   -2.5443    0.6725 H   0  0  0  0  0  0  0  0  0  0  0  0
   -1.5248   -1.2383    1.6671 H   0  0  0  0  0  0  0  0  0  0  0  0
   -3.7809   -2.2491    1.4084 H   0  0  0  0  0  0  0  0  0  0  0  0
   -3.1076   -3.5234    0.3851 H   0  0  0  0  0  0  0  0  0  0  0  0
   -2.6582   -3.4354    2.0969 H   0  0  0  0  0  0  0  0  0  0  0  0
  1  2  1  0  0  0  0
  2  3  1  0  0  0  0
  3  4  2  0  0  0  0
  4  5  2  0  0  0  0
  4  6  2  0  0  0  0
  6  7  1  0  0  0  0
  7  8  1  0  0  0  0
  4  9  1  0  0  0  0
  9 10  1  0  0  0  0
 10 11  1  0  0  0  0
 11 12  1  0  0  0  0
 12 13  2  0  0  0  0
 12 14  2  0  0  0  0
 14 15  1  0  0  0  0
 15 16  1  0  0  0  0
 12 17  2  0  0  0  0
 17 18  1  0  0  0  0
 18 19  1  0  0  0  0
  1 20  1  0  0  0  0
  1 21  1  0  0  0  0
  1 22  1  0  0  0  0
  2 23  1  0  0  0  0
  2 24  1  0  0  0  0
  7 25  1  0  0  0  0
  7 26  1  0  0  0  0
  8 27  1  0  0  0  0
  8 28  1  0  0  0  0
  8 29  1  0  0  0  0
 10 30  1  0  0  0  0
 10 31  1  0  0  0  0
 15 32  1  0  0  0  0
 15 33  1  0  0  0  0
 16 34  1  0  0  0  0
 16 35  1  0  0  0  0
 16 36  1  0  0  0  0
 18 37  1  0  0  0  0
 18 38  1  0  0  0  0
 19 39  1  0  0  0  0
 19 40  1  0  0  0  0
 19 41  1  0  0  0  0
M  END
