 xtb: 6.7.1 (edcfbbe)
          04092505203D

 41 40  0     0  0            999 V2000
    4.4259   -1.6365   -0.8314 C   0  0  0  0  0  0  0  0  0  0  0  0
    4.6248   -0.1360   -0.7718 C   0  0  0  0  0  0  0  0  0  0  0  0
    3.5882    0.5319   -0.0307 O   0  0  0  0  0  0  0  0  0  0  0  0
    2.0724    0.5726   -0.5181 P   0  0  0  0  0  0  0  0  0  0  0  0
    1.8468    0.7245   -2.4571 S   0  0  0  0  0  0  0  0  0  0  0  0
    1.5278    1.8214    0.2781 O   0  0  0  0  0  0  0  0  0  0  0  0
    2.0165    2.2850    1.5596 C   0  0  0  0  0  0  0  0  0  0  0  0
    1.7451    1.2922    2.6697 C   0  0  0  0  0  0  0  0  0  0  0  0
    1.2308   -1.1798    0.3585 S   0  0  0  0  0  0  0  0  0  0  0  0
    0.1336   -1.7421   -0.9790 C   0  0  0  0  0  0  0  0  0  0  0  0
   -1.5699   -1.9951   -0.4326 S   0  0  0  0  0  0  0  0  0  0  0  0
   -1.9925   -0.0056    0.1914 P   0  0  0  0  0  0  0  0  0  0  0  0
   -1.3752    1.4393   -0.9776 S   0  0  0  0  0  0  0  0  0  0  0  0
   -1.3927    0.1061    1.6467 O   0  0  0  0  0  0  0  0  0  0  0  0
   -1.7344   -0.8179    2.7150 C   0  0  0  0  0  0  0  0  0  0  0  0
   -2.7615   -0.2006    3.6409 C   0  0  0  0  0  0  0  0  0  0  0  0
   -3.5571   -0.0383    0.4712 O   0  0  0  0  0  0  0  0  0  0  0  0
   -4.5377    0.2263   -0.5471 C   0  0  0  0  0  0  0  0  0  0  0  0
   -4.5414   -0.8280   -1.6348 C   0  0  0  0  0  0  0  0  0  0  0  0
    3.5559   -1.8698   -1.4433 H   0  0  0  0  0  0  0  0  0  0  0  0
    5.3020   -2.0928   -1.2807 H   0  0  0  0  0  0  0  0  0  0  0  0
    4.2773   -2.0418    0.1661 H   0  0  0  0  0  0  0  0  0  0  0  0
    4.6509    0.2863   -1.7811 H   0  0  0  0  0  0  0  0  0  0  0  0
    5.5359    0.1288   -0.2332 H   0  0  0  0  0  0  0  0  0  0  0  0
    3.0845    2.4913    1.4648 H   0  0  0  0  0  0  0  0  0  0  0  0
    1.4673    3.2163    1.7088 H   0  0  0  0  0  0  0  0  0  0  0  0
    0.6841    1.0577    2.7017 H   0  0  0  0  0  0  0  0  0  0  0  0
    2.3062    0.3745    2.4998 H   0  0  0  0  0  0  0  0  0  0  0  0
    2.0479    1.7265    3.6173 H   0  0  0  0  0  0  0  0  0  0  0  0
    0.4790   -2.7123   -1.3273 H   0  0  0  0  0  0  0  0  0  0  0  0
    0.1657   -1.0006   -1.7828 H   0  0  0  0  0  0  0  0  0  0  0  0
   -2.1054   -1.7470    2.2744 H   0  0  0  0  0  0  0  0  0  0  0  0
   -0.7902   -1.0090    3.2290 H   0  0  0  0  0  0  0  0  0  0  0  0
   -2.3942    0.7437    4.0334 H   0  0  0  0  0  0  0  0  0  0  0  0
   -3.6896   -0.0200    3.1054 H   0  0  0  0  0  0  0  0  0  0  0  0
   -2.9489   -0.8824    4.4644 H   0  0  0  0  0  0  0  0  0  0  0  0
   -5.4814    0.2426    0.0002 H   0  0  0  0  0  0  0  0  0  0  0  0
   -4.3351    1.2148   -0.9705 H   0  0  0  0  0  0  0  0  0  0  0  0
   -3.6232   -0.7657   -2.2171 H   0  0  0  0  0  0  0  0  0  0  0  0
   -4.6159   -1.8217   -1.2003 H   0  0  0  0  0  0  0  0  0  0  0  0
   -5.3858   -0.6574   -2.2950 H   0  0  0  0  0  0  0  0  0  0  0  0
  1  2  1  0  0  0  0
  2  3  1  0  0  0  0
  3  4  2  0  0  0  0
  4  5  2  0  0  0  0
  4  6  2  0  0  0  0
  6  7  1  0  0  0  0
  7  8  1  0  0  0  0
  4  9  1  0  0  0  0
  9 10  1  0  0  0  0
 10 11  1  0  0  0  0
 11 12  1  0  0  0  0
 12 13  2  0  0  0  0
 12 14  2  0  0  0  0
 14 15  1  0  0  0  0
 15 16  1  0  0  0  0
 12 17  2  0  0  0  0
 17 18  1  0  0  0  0
 18 19  1  0  0  0  0
  1 20  1  0  0  0  0
  1 21  1  0  0  0  0
  1 22  1  0  0  0  0
  2 23  1  0  0  0  0
  2 24  1  0  0  0  0
  7 25  1  0  0  0  0
  7 26  1  0  0  0  0
  8 27  1  0  0  0  0
  8 28  1  0  0  0  0
  8 29  1  0  0  0  0
 10 30  1  0  0  0  0
 10 31  1  0  0  0  0
 15 32  1  0  0  0  0
 15 33  1  0  0  0  0
 16 34  1  0  0  0  0
 16 35  1  0  0  0  0
 16 36  1  0  0  0  0
 18 37  1  0  0  0  0
 18 38  1  0  0  0  0
 19 39  1  0  0  0  0
 19 40  1  0  0  0  0
 19 41  1  0  0  0  0
M  END
