 xtb: 6.7.1 (edcfbbe)
          04092505213D

 41 40  0     0  0            999 V2000
    0.9973    1.5628    2.3836 C   0  0  0  0  0  0  0  0  0  0  0  0
    2.4072    1.0100    2.4268 C   0  0  0  0  0  0  0  0  0  0  0  0
    2.9453    0.8071    1.1103 O   0  0  0  0  0  0  0  0  0  0  0  0
    2.5015   -0.4064    0.1815 P   0  0  0  0  0  0  0  0  0  0  0  0
    2.1970   -2.1029    1.1244 S   0  0  0  0  0  0  0  0  0  0  0  0
    3.6544   -0.4275   -0.9045 O   0  0  0  0  0  0  0  0  0  0  0  0
    4.8675   -1.1885   -0.7296 C   0  0  0  0  0  0  0  0  0  0  0  0
    5.7431   -0.6207    0.3678 C   0  0  0  0  0  0  0  0  0  0  0  0
    0.9630    0.3619   -1.0517 S   0  0  0  0  0  0  0  0  0  0  0  0
   -0.0971   -1.1114   -1.1078 C   0  0  0  0  0  0  0  0  0  0  0  0
   -1.2237   -1.2351    0.3101 S   0  0  0  0  0  0  0  0  0  0  0  0
   -2.5083    0.3218   -0.2956 P   0  0  0  0  0  0  0  0  0  0  0  0
   -2.9076    0.4658   -2.2148 S   0  0  0  0  0  0  0  0  0  0  0  0
   -1.7695    1.5429    0.3882 O   0  0  0  0  0  0  0  0  0  0  0  0
   -2.1058    2.9178    0.0920 C   0  0  0  0  0  0  0  0  0  0  0  0
   -1.1787    3.4770   -0.9692 C   0  0  0  0  0  0  0  0  0  0  0  0
   -3.8007    0.1936    0.6231 O   0  0  0  0  0  0  0  0  0  0  0  0
   -4.9479   -0.5825    0.2357 C   0  0  0  0  0  0  0  0  0  0  0  0
   -4.6506   -2.0680    0.2283 C   0  0  0  0  0  0  0  0  0  0  0  0
    0.6732    1.8032    3.3911 H   0  0  0  0  0  0  0  0  0  0  0  0
    0.9629    2.4592    1.7698 H   0  0  0  0  0  0  0  0  0  0  0  0
    0.3131    0.8263    1.9636 H   0  0  0  0  0  0  0  0  0  0  0  0
    2.4309    0.0557    2.9639 H   0  0  0  0  0  0  0  0  0  0  0  0
    3.0990    1.7149    2.8904 H   0  0  0  0  0  0  0  0  0  0  0  0
    4.5953   -2.2256   -0.5084 H   0  0  0  0  0  0  0  0  0  0  0  0
    5.3522   -1.1309   -1.7051 H   0  0  0  0  0  0  0  0  0  0  0  0
    5.9189    0.4381    0.1969 H   0  0  0  0  0  0  0  0  0  0  0  0
    5.2564   -0.7462    1.3339 H   0  0  0  0  0  0  0  0  0  0  0  0
    6.6916   -1.1485    0.3797 H   0  0  0  0  0  0  0  0  0  0  0  0
    0.5148   -2.0107   -1.0958 H   0  0  0  0  0  0  0  0  0  0  0  0
   -0.6844   -1.0381   -2.0231 H   0  0  0  0  0  0  0  0  0  0  0  0
   -3.1492    2.9744   -0.2295 H   0  0  0  0  0  0  0  0  0  0  0  0
   -1.9869    3.4384    1.0436 H   0  0  0  0  0  0  0  0  0  0  0  0
   -0.1424    3.3490   -0.6685 H   0  0  0  0  0  0  0  0  0  0  0  0
   -1.3267    2.9553   -1.9122 H   0  0  0  0  0  0  0  0  0  0  0  0
   -1.3886    4.5323   -1.1098 H   0  0  0  0  0  0  0  0  0  0  0  0
   -5.7026   -0.3248    0.9797 H   0  0  0  0  0  0  0  0  0  0  0  0
   -5.2713   -0.2502   -0.7562 H   0  0  0  0  0  0  0  0  0  0  0  0
   -4.2270   -2.3733    1.1819 H   0  0  0  0  0  0  0  0  0  0  0  0
   -5.5681   -2.6185    0.0468 H   0  0  0  0  0  0  0  0  0  0  0  0
   -3.9369   -2.3005   -0.5611 H   0  0  0  0  0  0  0  0  0  0  0  0
  1  2  1  0  0  0  0
  2  3  1  0  0  0  0
  3  4  2  0  0  0  0
  4  5  2  0  0  0  0
  4  6  2  0  0  0  0
  6  7  1  0  0  0  0
  7  8  1  0  0  0  0
  4  9  1  0  0  0  0
  9 10  1  0  0  0  0
 10 11  1  0  0  0  0
 11 12  1  0  0  0  0
 12 13  2  0  0  0  0
 12 14  2  0  0  0  0
 14 15  1  0  0  0  0
 15 16  1  0  0  0  0
 12 17  2  0  0  0  0
 17 18  1  0  0  0  0
 18 19  1  0  0  0  0
  1 20  1  0  0  0  0
  1 21  1  0  0  0  0
  1 22  1  0  0  0  0
  2 23  1  0  0  0  0
  2 24  1  0  0  0  0
  7 25  1  0  0  0  0
  7 26  1  0  0  0  0
  8 27  1  0  0  0  0
  8 28  1  0  0  0  0
  8 29  1  0  0  0  0
 10 30  1  0  0  0  0
 10 31  1  0  0  0  0
 15 32  1  0  0  0  0
 15 33  1  0  0  0  0
 16 34  1  0  0  0  0
 16 35  1  0  0  0  0
 16 36  1  0  0  0  0
 18 37  1  0  0  0  0
 18 38  1  0  0  0  0
 19 39  1  0  0  0  0
 19 40  1  0  0  0  0
 19 41  1  0  0  0  0
M  END
