 xtb: 6.7.1 (edcfbbe)
          04092505213D

 41 40  0     0  0            999 V2000
    3.8475    0.1777    2.5682 C   0  0  0  0  0  0  0  0  0  0  0  0
    3.8010    0.9955    1.2935 C   0  0  0  0  0  0  0  0  0  0  0  0
    3.7105    0.1357    0.1287 O   0  0  0  0  0  0  0  0  0  0  0  0
    2.3445   -0.2045   -0.5971 P   0  0  0  0  0  0  0  0  0  0  0  0
    2.6220   -1.2165   -2.2444 S   0  0  0  0  0  0  0  0  0  0  0  0
    1.5509    1.1756   -0.7677 O   0  0  0  0  0  0  0  0  0  0  0  0
    1.5971    1.9272   -1.9919 C   0  0  0  0  0  0  0  0  0  0  0  0
    2.9167    2.6553   -2.1398 C   0  0  0  0  0  0  0  0  0  0  0  0
    1.1400   -1.1086    0.8712 S   0  0  0  0  0  0  0  0  0  0  0  0
   -0.1708   -1.6747   -0.2744 C   0  0  0  0  0  0  0  0  0  0  0  0
   -1.7312   -1.9263    0.5882 S   0  0  0  0  0  0  0  0  0  0  0  0
   -2.5001    0.0677    0.4741 P   0  0  0  0  0  0  0  0  0  0  0  0
   -1.7582    1.1746   -0.9728 S   0  0  0  0  0  0  0  0  0  0  0  0
   -2.4551    0.6329    1.9504 O   0  0  0  0  0  0  0  0  0  0  0  0
   -1.2902    0.6952    2.7917 C   0  0  0  0  0  0  0  0  0  0  0  0
   -0.3666    1.8331    2.4020 C   0  0  0  0  0  0  0  0  0  0  0  0
   -4.0696   -0.1008    0.4315 O   0  0  0  0  0  0  0  0  0  0  0  0
   -4.7953   -0.1835   -0.8067 C   0  0  0  0  0  0  0  0  0  0  0  0
   -4.5445   -1.4932   -1.5276 C   0  0  0  0  0  0  0  0  0  0  0  0
    2.9153   -0.3652    2.7101 H   0  0  0  0  0  0  0  0  0  0  0  0
    4.6637   -0.5377    2.5208 H   0  0  0  0  0  0  0  0  0  0  0  0
    4.0042    0.8444    3.4103 H   0  0  0  0  0  0  0  0  0  0  0  0
    4.7302    1.5484    1.1453 H   0  0  0  0  0  0  0  0  0  0  0  0
    2.9538    1.6856    1.2929 H   0  0  0  0  0  0  0  0  0  0  0  0
    1.4380    1.2400   -2.8292 H   0  0  0  0  0  0  0  0  0  0  0  0
    0.7484    2.6096   -1.9194 H   0  0  0  0  0  0  0  0  0  0  0  0
    3.0827    3.3179   -1.2945 H   0  0  0  0  0  0  0  0  0  0  0  0
    3.7295    1.9308   -2.1917 H   0  0  0  0  0  0  0  0  0  0  0  0
    2.9040    3.2372   -3.0558 H   0  0  0  0  0  0  0  0  0  0  0  0
    0.1252   -2.6287   -0.7041 H   0  0  0  0  0  0  0  0  0  0  0  0
   -0.3077   -0.9148   -1.0485 H   0  0  0  0  0  0  0  0  0  0  0  0
   -1.7024    0.8464    3.7911 H   0  0  0  0  0  0  0  0  0  0  0  0
   -0.7641   -0.2648    2.7544 H   0  0  0  0  0  0  0  0  0  0  0  0
    0.4484    1.8896    3.1166 H   0  0  0  0  0  0  0  0  0  0  0  0
    0.0438    1.6675    1.4072 H   0  0  0  0  0  0  0  0  0  0  0  0
   -0.9112    2.7736    2.3977 H   0  0  0  0  0  0  0  0  0  0  0  0
   -5.8388   -0.0847   -0.5049 H   0  0  0  0  0  0  0  0  0  0  0  0
   -4.5108    0.6650   -1.4381 H   0  0  0  0  0  0  0  0  0  0  0  0
   -5.2114   -1.5673   -2.3806 H   0  0  0  0  0  0  0  0  0  0  0  0
   -3.5153   -1.5345   -1.8818 H   0  0  0  0  0  0  0  0  0  0  0  0
   -4.7190   -2.3311   -0.8577 H   0  0  0  0  0  0  0  0  0  0  0  0
  1  2  1  0  0  0  0
  2  3  1  0  0  0  0
  3  4  2  0  0  0  0
  4  5  2  0  0  0  0
  4  6  1  0  0  0  0
  6  7  1  0  0  0  0
  7  8  1  0  0  0  0
  4  9  1  0  0  0  0
  9 10  1  0  0  0  0
 10 11  1  0  0  0  0
 11 12  1  0  0  0  0
 12 13  2  0  0  0  0
 12 14  2  0  0  0  0
 14 15  1  0  0  0  0
 15 16  1  0  0  0  0
 12 17  2  0  0  0  0
 17 18  1  0  0  0  0
 18 19  1  0  0  0  0
  1 20  1  0  0  0  0
  1 21  1  0  0  0  0
  1 22  1  0  0  0  0
  2 23  1  0  0  0  0
  2 24  1  0  0  0  0
  7 25  1  0  0  0  0
  7 26  1  0  0  0  0
  8 27  1  0  0  0  0
  8 28  1  0  0  0  0
  8 29  1  0  0  0  0
 10 30  1  0  0  0  0
 10 31  1  0  0  0  0
 15 32  1  0  0  0  0
 15 33  1  0  0  0  0
 16 34  1  0  0  0  0
 16 35  1  0  0  0  0
 16 36  1  0  0  0  0
 18 37  1  0  0  0  0
 18 38  1  0  0  0  0
 19 39  1  0  0  0  0
 19 40  1  0  0  0  0
 19 41  1  0  0  0  0
M  END
