 xtb: 6.7.1 (edcfbbe)
          04092507313D

 38 37  0     0  0            999 V2000
    3.5554   -3.9823   -0.9224 C   0  0  0  0  0  0  0  0  0  0  0  0
    4.1628   -2.6690   -1.3891 C   0  0  0  0  0  0  0  0  0  0  0  0
    3.1636   -1.8367   -2.0125 O   0  0  0  0  0  0  0  0  0  0  0  0
    2.4260   -1.0638   -1.2464 C   0  0  0  0  0  0  0  0  0  0  0  0
    2.5402   -0.9698   -0.0416 O   0  0  0  0  0  0  0  0  0  0  0  0
    1.4149   -0.2719   -2.0495 C   0  0  0  0  0  0  0  0  0  0  0  0
    0.4098    0.3666   -1.1011 C   0  0  0  0  0  0  0  0  0  0  0  0
   -0.2433    1.0625   -1.6373 H   0  0  0  0  0  0  0  0  0  0  0  0
    1.1506    1.1595   -0.0328 C   0  0  0  0  0  0  0  0  0  0  0  0
    2.0712    1.8936   -0.3145 O   0  0  0  0  0  0  0  0  0  0  0  0
    0.6521    0.9983    1.1737 O   0  0  0  0  0  0  0  0  0  0  0  0
    1.2814    1.7192    2.2528 C   0  0  0  0  0  0  0  0  0  0  0  0
    0.8014    3.1597    2.3152 C   0  0  0  0  0  0  0  0  0  0  0  0
   -0.6471   -0.9180   -0.3586 S   0  0  0  0  0  0  0  0  0  0  0  0
   -2.2860    0.3231    0.2127 P   0  0  0  0  0  0  0  0  0  0  0  0
   -2.1086    2.2604    0.0039 S   0  0  0  0  0  0  0  0  0  0  0  0
   -3.5108   -0.1962   -0.6416 O   0  0  0  0  0  0  0  0  0  0  0  0
   -3.9150   -1.5798   -0.6474 C   0  0  0  0  0  0  0  0  0  0  0  0
   -2.6955   -0.2107    1.6609 O   0  0  0  0  0  0  0  0  0  0  0  0
   -1.8869   -0.0286    2.8262 C   0  0  0  0  0  0  0  0  0  0  0  0
    2.8055   -3.7947   -0.1570 H   0  0  0  0  0  0  0  0  0  0  0  0
    3.0878   -4.4956   -1.7578 H   0  0  0  0  0  0  0  0  0  0  0  0
    4.3359   -4.6104   -0.5061 H   0  0  0  0  0  0  0  0  0  0  0  0
    4.9083   -2.8273   -2.1682 H   0  0  0  0  0  0  0  0  0  0  0  0
    4.5984   -2.1210   -0.5488 H   0  0  0  0  0  0  0  0  0  0  0  0
    0.9275   -0.9230   -2.7740 H   0  0  0  0  0  0  0  0  0  0  0  0
    1.9547    0.5132   -2.5839 H   0  0  0  0  0  0  0  0  0  0  0  0
    1.0040    1.1630    3.1482 H   0  0  0  0  0  0  0  0  0  0  0  0
    2.3631    1.6762    2.0981 H   0  0  0  0  0  0  0  0  0  0  0  0
    1.2059    3.6339    3.2028 H   0  0  0  0  0  0  0  0  0  0  0  0
    1.1352    3.7045    1.4352 H   0  0  0  0  0  0  0  0  0  0  0  0
   -0.2850    3.1979    2.3467 H   0  0  0  0  0  0  0  0  0  0  0  0
   -3.0428   -2.2215   -0.7761 H   0  0  0  0  0  0  0  0  0  0  0  0
   -4.5943   -1.6760   -1.4904 H   0  0  0  0  0  0  0  0  0  0  0  0
   -4.4198   -1.8160    0.2868 H   0  0  0  0  0  0  0  0  0  0  0  0
   -1.7055    1.0327    2.9952 H   0  0  0  0  0  0  0  0  0  0  0  0
   -0.9395   -0.5538    2.7077 H   0  0  0  0  0  0  0  0  0  0  0  0
   -2.4625   -0.4527    3.6455 H   0  0  0  0  0  0  0  0  0  0  0  0
  1  2  1  0  0  0  0
  2  3  1  0  0  0  0
  3  4  4  0  0  0  0
  4  5  2  0  0  0  0
  4  6  1  0  0  0  0
  6  7  1  0  0  0  0
  7  8  1  0  0  0  0
  7  9  1  0  0  0  0
  9 10  2  0  0  0  0
  9 11  1  0  0  0  0
 11 12  1  0  0  0  0
 12 13  1  0  0  0  0
  7 14  1  0  0  0  0
 14 15  1  0  0  0  0
 15 16  2  0  0  0  0
 15 17  2  0  0  0  0
 17 18  1  0  0  0  0
 15 19  2  0  0  0  0
 19 20  1  0  0  0  0
  1 21  1  0  0  0  0
  1 22  1  0  0  0  0
  1 23  1  0  0  0  0
  2 24  1  0  0  0  0
  2 25  1  0  0  0  0
  6 26  1  0  0  0  0
  6 27  1  0  0  0  0
 12 28  1  0  0  0  0
 12 29  1  0  0  0  0
 13 30  1  0  0  0  0
 13 31  1  0  0  0  0
 13 32  1  0  0  0  0
 18 33  1  0  0  0  0
 18 34  1  0  0  0  0
 18 35  1  0  0  0  0
 20 36  1  0  0  0  0
 20 37  1  0  0  0  0
 20 38  1  0  0  0  0
M  END
