 xtb: 6.7.1 (edcfbbe)
          04092507313D

 38 37  0     0  0            999 V2000
    5.1332   -1.0830   -2.4565 C   0  0  0  0  0  0  0  0  0  0  0  0
    4.3005   -0.2420   -1.5019 C   0  0  0  0  0  0  0  0  0  0  0  0
    2.9313   -0.6870   -1.4788 O   0  0  0  0  0  0  0  0  0  0  0  0
    2.6089   -1.6736   -0.6652 C   0  0  0  0  0  0  0  0  0  0  0  0
    3.3832   -2.2492    0.0643 O   0  0  0  0  0  0  0  0  0  0  0  0
    1.1320   -2.0169   -0.7662 C   0  0  0  0  0  0  0  0  0  0  0  0
    0.2734   -0.7793   -0.5158 C   0  0  0  0  0  0  0  0  0  0  0  0
    0.5130    0.0016   -1.2446 H   0  0  0  0  0  0  0  0  0  0  0  0
    0.4831   -0.2115    0.8749 C   0  0  0  0  0  0  0  0  0  0  0  0
   -0.4352   -0.0287    1.6485 O   0  0  0  0  0  0  0  0  0  0  0  0
    1.7389    0.0468    1.1157 O   0  0  0  0  0  0  0  0  0  0  0  0
    2.0850    0.6753    2.3707 C   0  0  0  0  0  0  0  0  0  0  0  0
    2.1123    2.1856    2.2080 C   0  0  0  0  0  0  0  0  0  0  0  0
   -1.4922   -1.2037   -0.6801 S   0  0  0  0  0  0  0  0  0  0  0  0
   -2.3233    0.6803   -0.1165 P   0  0  0  0  0  0  0  0  0  0  0  0
   -1.2028    2.2835   -0.1573 S   0  0  0  0  0  0  0  0  0  0  0  0
   -3.4441    0.8473   -1.2326 O   0  0  0  0  0  0  0  0  0  0  0  0
   -4.4690   -0.1343   -1.4660 C   0  0  0  0  0  0  0  0  0  0  0  0
   -3.2636    0.4539    1.1546 O   0  0  0  0  0  0  0  0  0  0  0  0
   -2.9635    0.7119    2.5256 C   0  0  0  0  0  0  0  0  0  0  0  0
    4.6944   -1.0667   -3.4503 H   0  0  0  0  0  0  0  0  0  0  0  0
    6.1397   -0.6807   -2.5033 H   0  0  0  0  0  0  0  0  0  0  0  0
    5.1797   -2.1111   -2.1049 H   0  0  0  0  0  0  0  0  0  0  0  0
    4.2439    0.7958   -1.8311 H   0  0  0  0  0  0  0  0  0  0  0  0
    4.7003   -0.2991   -0.4857 H   0  0  0  0  0  0  0  0  0  0  0  0
    0.9024   -2.7984   -0.0416 H   0  0  0  0  0  0  0  0  0  0  0  0
    0.9263   -2.3889   -1.7709 H   0  0  0  0  0  0  0  0  0  0  0  0
    1.3527    0.3729    3.1235 H   0  0  0  0  0  0  0  0  0  0  0  0
    3.0697    0.2756    2.6147 H   0  0  0  0  0  0  0  0  0  0  0  0
    2.8525    2.4724    1.4668 H   0  0  0  0  0  0  0  0  0  0  0  0
    1.1384    2.5457    1.8798 H   0  0  0  0  0  0  0  0  0  0  0  0
    2.3589    2.6444    3.1594 H   0  0  0  0  0  0  0  0  0  0  0  0
   -4.0166   -1.1121   -1.6357 H   0  0  0  0  0  0  0  0  0  0  0  0
   -4.9916    0.2069   -2.3558 H   0  0  0  0  0  0  0  0  0  0  0  0
   -5.1428   -0.1764   -0.6124 H   0  0  0  0  0  0  0  0  0  0  0  0
   -2.5029   -0.1664    2.9731 H   0  0  0  0  0  0  0  0  0  0  0  0
   -3.9194    0.9340    2.9951 H   0  0  0  0  0  0  0  0  0  0  0  0
   -2.2877    1.5627    2.6121 H   0  0  0  0  0  0  0  0  0  0  0  0
  1  2  1  0  0  0  0
  2  3  1  0  0  0  0
  3  4  1  0  0  0  0
  4  5  2  0  0  0  0
  4  6  1  0  0  0  0
  6  7  1  0  0  0  0
  7  8  1  0  0  0  0
  7  9  1  0  0  0  0
  9 10  2  0  0  0  0
  9 11  4  0  0  0  0
 11 12  1  0  0  0  0
 12 13  1  0  0  0  0
  7 14  1  0  0  0  0
 14 15  1  0  0  0  0
 15 16  2  0  0  0  0
 15 17  2  0  0  0  0
 17 18  1  0  0  0  0
 15 19  2  0  0  0  0
 19 20  1  0  0  0  0
  1 21  1  0  0  0  0
  1 22  1  0  0  0  0
  1 23  1  0  0  0  0
  2 24  1  0  0  0  0
  2 25  1  0  0  0  0
  6 26  1  0  0  0  0
  6 27  1  0  0  0  0
 12 28  1  0  0  0  0
 12 29  1  0  0  0  0
 13 30  1  0  0  0  0
 13 31  1  0  0  0  0
 13 32  1  0  0  0  0
 18 33  1  0  0  0  0
 18 34  1  0  0  0  0
 18 35  1  0  0  0  0
 20 36  1  0  0  0  0
 20 37  1  0  0  0  0
 20 38  1  0  0  0  0
M  END
