 xtb: 6.7.1 (edcfbbe)
          04092505203D

 41 40  0     0  0            999 V2000
    5.1797   -0.4299   -1.4744 C   0  0  0  0  0  0  0  0  0  0  0  0
    4.5302   -0.5693   -0.1121 C   0  0  0  0  0  0  0  0  0  0  0  0
    3.5733    0.4750    0.1472 O   0  0  0  0  0  0  0  0  0  0  0  0
    2.1033    0.5514   -0.4635 P   0  0  0  0  0  0  0  0  0  0  0  0
    1.9366    0.8632   -2.3867 S   0  0  0  0  0  0  0  0  0  0  0  0
    1.5138    1.7341    0.3900 O   0  0  0  0  0  0  0  0  0  0  0  0
    1.6032    1.7663    1.8381 C   0  0  0  0  0  0  0  0  0  0  0  0
    0.5315    2.7052    2.3494 C   0  0  0  0  0  0  0  0  0  0  0  0
    1.2658   -1.2711    0.2521 S   0  0  0  0  0  0  0  0  0  0  0  0
    0.1799   -1.7194   -1.1365 C   0  0  0  0  0  0  0  0  0  0  0  0
   -1.5115   -2.0594   -0.6066 S   0  0  0  0  0  0  0  0  0  0  0  0
   -1.9990   -0.1073    0.0900 P   0  0  0  0  0  0  0  0  0  0  0  0
   -1.3871    1.3722   -1.0384 S   0  0  0  0  0  0  0  0  0  0  0  0
   -1.4854   -0.0011    1.5729 O   0  0  0  0  0  0  0  0  0  0  0  0
   -1.8883   -0.9492    2.6030 C   0  0  0  0  0  0  0  0  0  0  0  0
   -0.6961   -1.2330    3.4924 C   0  0  0  0  0  0  0  0  0  0  0  0
   -3.5699   -0.2115    0.2985 O   0  0  0  0  0  0  0  0  0  0  0  0
   -4.4786   -0.2705   -0.8200 C   0  0  0  0  0  0  0  0  0  0  0  0
   -5.8760   -0.0175   -0.2920 C   0  0  0  0  0  0  0  0  0  0  0  0
    4.4393   -0.5444   -2.2632 H   0  0  0  0  0  0  0  0  0  0  0  0
    5.6372    0.5509   -1.5739 H   0  0  0  0  0  0  0  0  0  0  0  0
    5.9412   -1.1949   -1.5865 H   0  0  0  0  0  0  0  0  0  0  0  0
    5.2626   -0.4504    0.6888 H   0  0  0  0  0  0  0  0  0  0  0  0
    4.0304   -1.5368   -0.0120 H   0  0  0  0  0  0  0  0  0  0  0  0
    1.4597    0.7498    2.2175 H   0  0  0  0  0  0  0  0  0  0  0  0
    2.6047    2.1143    2.0980 H   0  0  0  0  0  0  0  0  0  0  0  0
    0.5978    2.7700    3.4307 H   0  0  0  0  0  0  0  0  0  0  0  0
    0.6657    3.6927    1.9169 H   0  0  0  0  0  0  0  0  0  0  0  0
   -0.4515    2.3359    2.0665 H   0  0  0  0  0  0  0  0  0  0  0  0
    0.5491   -2.6412   -1.5788 H   0  0  0  0  0  0  0  0  0  0  0  0
    0.1931   -0.8999   -1.8614 H   0  0  0  0  0  0  0  0  0  0  0  0
   -2.7042   -0.4812    3.1553 H   0  0  0  0  0  0  0  0  0  0  0  0
   -2.2511   -1.8606    2.1201 H   0  0  0  0  0  0  0  0  0  0  0  0
   -0.3310   -0.3106    3.9352 H   0  0  0  0  0  0  0  0  0  0  0  0
   -1.0013   -1.9124    4.2816 H   0  0  0  0  0  0  0  0  0  0  0  0
    0.1038   -1.6923    2.9164 H   0  0  0  0  0  0  0  0  0  0  0  0
   -4.1788    0.4865   -1.5521 H   0  0  0  0  0  0  0  0  0  0  0  0
   -4.3954   -1.2612   -1.2750 H   0  0  0  0  0  0  0  0  0  0  0  0
   -5.9297    0.9667    0.1647 H   0  0  0  0  0  0  0  0  0  0  0  0
   -6.5818   -0.0698   -1.1144 H   0  0  0  0  0  0  0  0  0  0  0  0
   -6.1320   -0.7665    0.4515 H   0  0  0  0  0  0  0  0  0  0  0  0
  1  2  1  0  0  0  0
  2  3  1  0  0  0  0
  3  4  2  0  0  0  0
  4  5  2  0  0  0  0
  4  6  2  0  0  0  0
  6  7  1  0  0  0  0
  7  8  1  0  0  0  0
  4  9  1  0  0  0  0
  9 10  1  0  0  0  0
 10 11  1  0  0  0  0
 11 12  1  0  0  0  0
 12 13  2  0  0  0  0
 12 14  2  0  0  0  0
 14 15  1  0  0  0  0
 15 16  1  0  0  0  0
 12 17  2  0  0  0  0
 17 18  1  0  0  0  0
 18 19  1  0  0  0  0
  1 20  1  0  0  0  0
  1 21  1  0  0  0  0
  1 22  1  0  0  0  0
  2 23  1  0  0  0  0
  2 24  1  0  0  0  0
  7 25  1  0  0  0  0
  7 26  1  0  0  0  0
  8 27  1  0  0  0  0
  8 28  1  0  0  0  0
  8 29  1  0  0  0  0
 10 30  1  0  0  0  0
 10 31  1  0  0  0  0
 15 32  1  0  0  0  0
 15 33  1  0  0  0  0
 16 34  1  0  0  0  0
 16 35  1  0  0  0  0
 16 36  1  0  0  0  0
 18 37  1  0  0  0  0
 18 38  1  0  0  0  0
 19 39  1  0  0  0  0
 19 40  1  0  0  0  0
 19 41  1  0  0  0  0
M  END
