 xtb: 6.7.1 (edcfbbe)
          04032519423D

 20 20  0     0  0            999 V2000
    0.5966    1.7064   -0.0574 C   0  0  0  0  0  0  0  0  0  0  0  0
    1.3927    0.4086   -0.2396 C   0  0  0  0  0  0  0  0  0  0  0  0
    1.6333    0.2670   -1.2994 H   0  0  0  0  0  0  0  0  0  0  0  0
    0.5376   -0.7823    0.2249 C   0  0  0  0  0  0  0  0  0  0  0  0
    0.3285   -0.6964    1.3034 H   0  0  0  0  0  0  0  0  0  0  0  0
   -0.7962   -0.7507   -0.5265 C   0  0  0  0  0  0  0  0  0  0  0  0
   -0.5867   -0.8193   -1.6066 H   0  0  0  0  0  0  0  0  0  0  0  0
   -1.4796    0.6029   -0.2689 C   0  0  0  0  0  0  0  0  0  0  0  0
   -2.3854    0.6642   -0.8847 H   0  0  0  0  0  0  0  0  0  0  0  0
   -0.6573    1.6551   -0.7233 O   0  0  0  0  0  0  0  0  0  0  0  0
   -1.7626    0.7173    1.0855 O   0  0  0  0  0  0  0  0  0  0  0  0
   -1.6655   -1.7760   -0.1344 O   0  0  0  0  0  0  0  0  0  0  0  0
    1.1681   -2.0131   -0.0470 O   0  0  0  0  0  0  0  0  0  0  0  0
    2.6300    0.4386    0.4271 O   0  0  0  0  0  0  0  0  0  0  0  0
    1.1246    2.5524   -0.4967 H   0  0  0  0  0  0  0  0  0  0  0  0
    0.4357    1.8825    1.0144 H   0  0  0  0  0  0  0  0  0  0  0  0
   -2.4277    1.4056    1.2368 H   0  0  0  0  0  0  0  0  0  0  0  0
   -1.1601   -2.6038   -0.1129 H   0  0  0  0  0  0  0  0  0  0  0  0
    2.1072   -1.9329    0.1795 H   0  0  0  0  0  0  0  0  0  0  0  0
    2.4978    0.6892    1.3538 H   0  0  0  0  0  0  0  0  0  0  0  0
  1  2  1  0  0  0  0
  2  3  1  0  0  0  0
  2  4  1  0  0  0  0
  4  5  1  0  0  0  0
  4  6  1  0  0  0  0
  6  7  1  0  0  0  0
  6  8  1  0  0  0  0
  8  9  1  0  0  0  0
  1 10  1  0  0  0  0
  8 10  1  0  0  0  0
  8 11  1  0  0  0  0
  6 12  1  0  0  0  0
  4 13  1  0  0  0  0
  2 14  1  0  0  0  0
  1 15  1  0  0  0  0
  1 16  1  0  0  0  0
 11 17  1  0  0  0  0
 12 18  1  0  0  0  0
 13 19  1  0  0  0  0
 14 20  1  0  0  0  0
M  END
