 xtb: 6.7.1 (edcfbbe)
          04092505213D

 41 40  0     0  0            999 V2000
    5.8196   -1.1152    0.9463 C   0  0  0  0  0  0  0  0  0  0  0  0
    4.4603   -1.4407    0.3610 C   0  0  0  0  0  0  0  0  0  0  0  0
    3.6095   -0.2915    0.5479 O   0  0  0  0  0  0  0  0  0  0  0  0
    2.2809   -0.0940   -0.2990 P   0  0  0  0  0  0  0  0  0  0  0  0
    2.4811   -0.3345   -2.2391 S   0  0  0  0  0  0  0  0  0  0  0  0
    1.7937    1.3266    0.1963 O   0  0  0  0  0  0  0  0  0  0  0  0
    2.0847    2.5349   -0.5342 C   0  0  0  0  0  0  0  0  0  0  0  0
    3.5556    2.8849   -0.4601 C   0  0  0  0  0  0  0  0  0  0  0  0
    0.8976   -1.3666    0.6592 S   0  0  0  0  0  0  0  0  0  0  0  0
   -0.3248   -1.3758   -0.6797 C   0  0  0  0  0  0  0  0  0  0  0  0
   -1.0952    0.2438   -0.9743 S   0  0  0  0  0  0  0  0  0  0  0  0
   -2.7220    0.0250    0.3871 P   0  0  0  0  0  0  0  0  0  0  0  0
   -3.9767    1.5223    0.4962 S   0  0  0  0  0  0  0  0  0  0  0  0
   -2.0420   -0.4425    1.7427 O   0  0  0  0  0  0  0  0  0  0  0  0
   -1.8094    0.4712    2.8292 C   0  0  0  0  0  0  0  0  0  0  0  0
   -0.7744    1.5241    2.4867 C   0  0  0  0  0  0  0  0  0  0  0  0
   -3.3530   -1.3850    0.0090 O   0  0  0  0  0  0  0  0  0  0  0  0
   -4.4519   -1.4946   -0.9132 C   0  0  0  0  0  0  0  0  0  0  0  0
   -4.0351   -1.1981   -2.3404 C   0  0  0  0  0  0  0  0  0  0  0  0
    6.2638   -0.2746    0.4208 H   0  0  0  0  0  0  0  0  0  0  0  0
    5.7178   -0.8593    1.9968 H   0  0  0  0  0  0  0  0  0  0  0  0
    6.4663   -1.9808    0.8472 H   0  0  0  0  0  0  0  0  0  0  0  0
    4.0001   -2.2919    0.8700 H   0  0  0  0  0  0  0  0  0  0  0  0
    4.5251   -1.6564   -0.7109 H   0  0  0  0  0  0  0  0  0  0  0  0
    1.7662    2.3980   -1.5727 H   0  0  0  0  0  0  0  0  0  0  0  0
    1.4599    3.2894   -0.0546 H   0  0  0  0  0  0  0  0  0  0  0  0
    3.8756    2.9418    0.5769 H   0  0  0  0  0  0  0  0  0  0  0  0
    4.1409    2.1195   -0.9685 H   0  0  0  0  0  0  0  0  0  0  0  0
    3.7249    3.8404   -0.9463 H   0  0  0  0  0  0  0  0  0  0  0  0
   -1.0878   -2.0994   -0.4042 H   0  0  0  0  0  0  0  0  0  0  0  0
    0.1746   -1.6484   -1.6093 H   0  0  0  0  0  0  0  0  0  0  0  0
   -2.7603    0.9460    3.0909 H   0  0  0  0  0  0  0  0  0  0  0  0
   -1.4756   -0.1725    3.6440 H   0  0  0  0  0  0  0  0  0  0  0  0
   -0.6137    2.1632    3.3491 H   0  0  0  0  0  0  0  0  0  0  0  0
    0.1685    1.0622    2.2036 H   0  0  0  0  0  0  0  0  0  0  0  0
   -1.1309    2.1344    1.6563 H   0  0  0  0  0  0  0  0  0  0  0  0
   -4.7897   -2.5254   -0.7970 H   0  0  0  0  0  0  0  0  0  0  0  0
   -5.2417   -0.8068   -0.5949 H   0  0  0  0  0  0  0  0  0  0  0  0
   -3.7243   -0.1575   -2.4292 H   0  0  0  0  0  0  0  0  0  0  0  0
   -3.2093   -1.8384   -2.6404 H   0  0  0  0  0  0  0  0  0  0  0  0
   -4.8786   -1.3697   -3.0015 H   0  0  0  0  0  0  0  0  0  0  0  0
  1  2  1  0  0  0  0
  2  3  1  0  0  0  0
  3  4  2  0  0  0  0
  4  5  2  0  0  0  0
  4  6  2  0  0  0  0
  6  7  1  0  0  0  0
  7  8  1  0  0  0  0
  4  9  1  0  0  0  0
  9 10  1  0  0  0  0
 10 11  1  0  0  0  0
 11 12  1  0  0  0  0
 12 13  2  0  0  0  0
 12 14  2  0  0  0  0
 14 15  1  0  0  0  0
 15 16  1  0  0  0  0
 12 17  2  0  0  0  0
 17 18  1  0  0  0  0
 18 19  1  0  0  0  0
  1 20  1  0  0  0  0
  1 21  1  0  0  0  0
  1 22  1  0  0  0  0
  2 23  1  0  0  0  0
  2 24  1  0  0  0  0
  7 25  1  0  0  0  0
  7 26  1  0  0  0  0
  8 27  1  0  0  0  0
  8 28  1  0  0  0  0
  8 29  1  0  0  0  0
 10 30  1  0  0  0  0
 10 31  1  0  0  0  0
 15 32  1  0  0  0  0
 15 33  1  0  0  0  0
 16 34  1  0  0  0  0
 16 35  1  0  0  0  0
 16 36  1  0  0  0  0
 18 37  1  0  0  0  0
 18 38  1  0  0  0  0
 19 39  1  0  0  0  0
 19 40  1  0  0  0  0
 19 41  1  0  0  0  0
M  END
