 xtb: 6.7.1 (edcfbbe)
          04092505203D

 41 40  0     0  0            999 V2000
    1.7972   -1.0098   -2.8320 C   0  0  0  0  0  0  0  0  0  0  0  0
    2.6899   -0.0606   -2.0573 C   0  0  0  0  0  0  0  0  0  0  0  0
    1.9610    0.5466   -0.9609 O   0  0  0  0  0  0  0  0  0  0  0  0
    2.0798    0.1252    0.5516 P   0  0  0  0  0  0  0  0  0  0  0  0
    0.9764    1.3021    1.6596 S   0  0  0  0  0  0  0  0  0  0  0  0
    3.6532    0.1624    0.7625 O   0  0  0  0  0  0  0  0  0  0  0  0
    4.3673   -0.4874    1.8332 C   0  0  0  0  0  0  0  0  0  0  0  0
    3.8601   -0.0910    3.2033 C   0  0  0  0  0  0  0  0  0  0  0  0
    1.6190   -1.9398    0.7297 S   0  0  0  0  0  0  0  0  0  0  0  0
   -0.1664   -1.7638    0.9369 C   0  0  0  0  0  0  0  0  0  0  0  0
   -1.0690   -1.5813   -0.6390 S   0  0  0  0  0  0  0  0  0  0  0  0
   -1.8286    0.3886   -0.6451 P   0  0  0  0  0  0  0  0  0  0  0  0
   -0.8702    1.9074   -1.4168 S   0  0  0  0  0  0  0  0  0  0  0  0
   -2.2421    0.4902    0.8983 O   0  0  0  0  0  0  0  0  0  0  0  0
   -2.4893    1.7584    1.5288 C   0  0  0  0  0  0  0  0  0  0  0  0
   -3.7894    2.3708    1.0514 C   0  0  0  0  0  0  0  0  0  0  0  0
   -3.1653    0.2055   -1.4834 O   0  0  0  0  0  0  0  0  0  0  0  0
   -4.1830   -0.7770   -1.1743 C   0  0  0  0  0  0  0  0  0  0  0  0
   -4.1865   -1.8756   -2.2187 C   0  0  0  0  0  0  0  0  0  0  0  0
    2.3194   -1.3350   -3.7260 H   0  0  0  0  0  0  0  0  0  0  0  0
    1.5381   -1.8812   -2.2348 H   0  0  0  0  0  0  0  0  0  0  0  0
    0.8810   -0.4987   -3.1213 H   0  0  0  0  0  0  0  0  0  0  0  0
    2.9939    0.7858   -2.6753 H   0  0  0  0  0  0  0  0  0  0  0  0
    3.5727   -0.5673   -1.6626 H   0  0  0  0  0  0  0  0  0  0  0  0
    4.2874   -1.5682    1.6881 H   0  0  0  0  0  0  0  0  0  0  0  0
    5.3991   -0.1661    1.6807 H   0  0  0  0  0  0  0  0  0  0  0  0
    4.4892   -0.5424    3.9636 H   0  0  0  0  0  0  0  0  0  0  0  0
    3.8772    0.9906    3.3162 H   0  0  0  0  0  0  0  0  0  0  0  0
    2.8353   -0.4329    3.3395 H   0  0  0  0  0  0  0  0  0  0  0  0
   -0.3695   -0.8994    1.5710 H   0  0  0  0  0  0  0  0  0  0  0  0
   -0.5157   -2.6880    1.3889 H   0  0  0  0  0  0  0  0  0  0  0  0
   -2.5093    1.5255    2.5944 H   0  0  0  0  0  0  0  0  0  0  0  0
   -1.6435    2.4220    1.3216 H   0  0  0  0  0  0  0  0  0  0  0  0
   -4.6182    1.6926    1.2376 H   0  0  0  0  0  0  0  0  0  0  0  0
   -3.9601    3.3034    1.5797 H   0  0  0  0  0  0  0  0  0  0  0  0
   -3.7270    2.5762   -0.0172 H   0  0  0  0  0  0  0  0  0  0  0  0
   -4.0049   -1.1777   -0.1731 H   0  0  0  0  0  0  0  0  0  0  0  0
   -5.1222   -0.2207   -1.1857 H   0  0  0  0  0  0  0  0  0  0  0  0
   -4.3185   -1.4445   -3.2070 H   0  0  0  0  0  0  0  0  0  0  0  0
   -3.2467   -2.4227   -2.1980 H   0  0  0  0  0  0  0  0  0  0  0  0
   -5.0037   -2.5592   -2.0121 H   0  0  0  0  0  0  0  0  0  0  0  0
  1  2  1  0  0  0  0
  2  3  1  0  0  0  0
  3  4  2  0  0  0  0
  4  5  2  0  0  0  0
  4  6  2  0  0  0  0
  6  7  1  0  0  0  0
  7  8  1  0  0  0  0
  4  9  1  0  0  0  0
  9 10  1  0  0  0  0
 10 11  1  0  0  0  0
 11 12  1  0  0  0  0
 12 13  2  0  0  0  0
 12 14  1  0  0  0  0
 14 15  1  0  0  0  0
 15 16  1  0  0  0  0
 12 17  2  0  0  0  0
 17 18  1  0  0  0  0
 18 19  1  0  0  0  0
  1 20  1  0  0  0  0
  1 21  1  0  0  0  0
  1 22  1  0  0  0  0
  2 23  1  0  0  0  0
  2 24  1  0  0  0  0
  7 25  1  0  0  0  0
  7 26  1  0  0  0  0
  8 27  1  0  0  0  0
  8 28  1  0  0  0  0
  8 29  1  0  0  0  0
 10 30  1  0  0  0  0
 10 31  1  0  0  0  0
 15 32  1  0  0  0  0
 15 33  1  0  0  0  0
 16 34  1  0  0  0  0
 16 35  1  0  0  0  0
 16 36  1  0  0  0  0
 18 37  1  0  0  0  0
 18 38  1  0  0  0  0
 19 39  1  0  0  0  0
 19 40  1  0  0  0  0
 19 41  1  0  0  0  0
M  END
