 xtb: 6.7.1 (edcfbbe)
          04092505213D

 41 40  0     0  0            999 V2000
    4.1844   -1.1672   -2.8444 C   0  0  0  0  0  0  0  0  0  0  0  0
    4.2942   -0.3728   -1.5576 C   0  0  0  0  0  0  0  0  0  0  0  0
    3.3026   -0.8113   -0.6086 O   0  0  0  0  0  0  0  0  0  0  0  0
    1.9615    0.0351   -0.3614 P   0  0  0  0  0  0  0  0  0  0  0  0
    1.0207    0.4812   -2.0186 S   0  0  0  0  0  0  0  0  0  0  0  0
    2.4053    1.3542    0.3960 O   0  0  0  0  0  0  0  0  0  0  0  0
    2.7107    1.4735    1.8044 C   0  0  0  0  0  0  0  0  0  0  0  0
    3.8218    0.5448    2.2468 C   0  0  0  0  0  0  0  0  0  0  0  0
    1.0771   -1.3095    0.9885 S   0  0  0  0  0  0  0  0  0  0  0  0
   -0.2601   -1.9352   -0.0790 C   0  0  0  0  0  0  0  0  0  0  0  0
   -1.9211   -1.6371    0.5733 S   0  0  0  0  0  0  0  0  0  0  0  0
   -2.0880    0.4667    0.2847 P   0  0  0  0  0  0  0  0  0  0  0  0
   -0.7248    1.6183    1.0941 S   0  0  0  0  0  0  0  0  0  0  0  0
   -3.5876    0.7305    0.7354 O   0  0  0  0  0  0  0  0  0  0  0  0
   -4.1920    0.2437    1.9502 C   0  0  0  0  0  0  0  0  0  0  0  0
   -3.3843    0.5808    3.1853 C   0  0  0  0  0  0  0  0  0  0  0  0
   -2.1579    0.7686   -1.2577 O   0  0  0  0  0  0  0  0  0  0  0  0
   -3.1379    0.2379   -2.1844 C   0  0  0  0  0  0  0  0  0  0  0  0
   -2.6005   -0.9812   -2.9086 C   0  0  0  0  0  0  0  0  0  0  0  0
    3.2275   -0.9713   -3.3234 H   0  0  0  0  0  0  0  0  0  0  0  0
    4.9851   -0.8752   -3.5163 H   0  0  0  0  0  0  0  0  0  0  0  0
    4.2599   -2.2292   -2.6295 H   0  0  0  0  0  0  0  0  0  0  0  0
    4.1682    0.6992   -1.7443 H   0  0  0  0  0  0  0  0  0  0  0  0
    5.2535   -0.5468   -1.0658 H   0  0  0  0  0  0  0  0  0  0  0  0
    2.9918    2.5229    1.9076 H   0  0  0  0  0  0  0  0  0  0  0  0
    1.7884    1.2918    2.3628 H   0  0  0  0  0  0  0  0  0  0  0  0
    4.0304    0.7256    3.2966 H   0  0  0  0  0  0  0  0  0  0  0  0
    3.5216   -0.4945    2.1208 H   0  0  0  0  0  0  0  0  0  0  0  0
    4.7223    0.7278    1.6655 H   0  0  0  0  0  0  0  0  0  0  0  0
   -0.1614   -3.0161   -0.1361 H   0  0  0  0  0  0  0  0  0  0  0  0
   -0.1603   -1.4695   -1.0636 H   0  0  0  0  0  0  0  0  0  0  0  0
   -5.1665    0.7350    1.9637 H   0  0  0  0  0  0  0  0  0  0  0  0
   -4.3196   -0.8379    1.8547 H   0  0  0  0  0  0  0  0  0  0  0  0
   -2.4201    0.0748    3.1536 H   0  0  0  0  0  0  0  0  0  0  0  0
   -3.2060    1.6522    3.2416 H   0  0  0  0  0  0  0  0  0  0  0  0
   -3.9253    0.2576    4.0686 H   0  0  0  0  0  0  0  0  0  0  0  0
   -4.0576    0.0147   -1.6407 H   0  0  0  0  0  0  0  0  0  0  0  0
   -3.3087    1.0622   -2.8787 H   0  0  0  0  0  0  0  0  0  0  0  0
   -3.2651   -1.2232   -3.7318 H   0  0  0  0  0  0  0  0  0  0  0  0
   -1.6100   -0.7637   -3.3035 H   0  0  0  0  0  0  0  0  0  0  0  0
   -2.5404   -1.8369   -2.2407 H   0  0  0  0  0  0  0  0  0  0  0  0
  1  2  1  0  0  0  0
  2  3  1  0  0  0  0
  3  4  1  0  0  0  0
  4  5  2  0  0  0  0
  4  6  2  0  0  0  0
  6  7  1  0  0  0  0
  7  8  1  0  0  0  0
  4  9  1  0  0  0  0
  9 10  1  0  0  0  0
 10 11  1  0  0  0  0
 11 12  1  0  0  0  0
 12 13  2  0  0  0  0
 12 14  2  0  0  0  0
 14 15  1  0  0  0  0
 15 16  1  0  0  0  0
 12 17  2  0  0  0  0
 17 18  1  0  0  0  0
 18 19  1  0  0  0  0
  1 20  1  0  0  0  0
  1 21  1  0  0  0  0
  1 22  1  0  0  0  0
  2 23  1  0  0  0  0
  2 24  1  0  0  0  0
  7 25  1  0  0  0  0
  7 26  1  0  0  0  0
  8 27  1  0  0  0  0
  8 28  1  0  0  0  0
  8 29  1  0  0  0  0
 10 30  1  0  0  0  0
 10 31  1  0  0  0  0
 15 32  1  0  0  0  0
 15 33  1  0  0  0  0
 16 34  1  0  0  0  0
 16 35  1  0  0  0  0
 16 36  1  0  0  0  0
 18 37  1  0  0  0  0
 18 38  1  0  0  0  0
 19 39  1  0  0  0  0
 19 40  1  0  0  0  0
 19 41  1  0  0  0  0
M  END
