 xtb: 6.7.1 (edcfbbe)
          04092507313D

 38 37  0     0  0            999 V2000
    2.0544   -3.5259    0.6854 C   0  0  0  0  0  0  0  0  0  0  0  0
    3.1112   -2.5143    0.2741 C   0  0  0  0  0  0  0  0  0  0  0  0
    2.6500   -1.7350   -0.8471 O   0  0  0  0  0  0  0  0  0  0  0  0
    2.1544   -0.5383   -0.6455 C   0  0  0  0  0  0  0  0  0  0  0  0
    2.0541    0.0110    0.4348 O   0  0  0  0  0  0  0  0  0  0  0  0
    1.7399    0.1345   -1.9390 C   0  0  0  0  0  0  0  0  0  0  0  0
    0.4547    0.9336   -1.7235 C   0  0  0  0  0  0  0  0  0  0  0  0
    0.3123    1.6429   -2.5423 H   0  0  0  0  0  0  0  0  0  0  0  0
    0.4864    1.7001   -0.4159 C   0  0  0  0  0  0  0  0  0  0  0  0
   -0.3559    1.5421    0.4550 O   0  0  0  0  0  0  0  0  0  0  0  0
    1.4277    2.5939   -0.3836 O   0  0  0  0  0  0  0  0  0  0  0  0
    1.5953    3.3521    0.8350 C   0  0  0  0  0  0  0  0  0  0  0  0
    2.6626    4.3982    0.5868 C   0  0  0  0  0  0  0  0  0  0  0  0
   -1.0264   -0.1329   -1.7322 S   0  0  0  0  0  0  0  0  0  0  0  0
   -1.7129   -0.3455    0.2545 P   0  0  0  0  0  0  0  0  0  0  0  0
   -0.6809   -1.0380    1.7866 S   0  0  0  0  0  0  0  0  0  0  0  0
   -2.7517    0.8452    0.4903 O   0  0  0  0  0  0  0  0  0  0  0  0
   -3.8279    0.6913    1.4268 C   0  0  0  0  0  0  0  0  0  0  0  0
   -2.8151   -1.4788   -0.1279 O   0  0  0  0  0  0  0  0  0  0  0  0
   -2.4871   -2.8588   -0.2715 C   0  0  0  0  0  0  0  0  0  0  0  0
    1.7673   -4.1348   -0.1671 H   0  0  0  0  0  0  0  0  0  0  0  0
    2.4531   -4.1638    1.4669 H   0  0  0  0  0  0  0  0  0  0  0  0
    1.1748   -3.0130    1.0712 H   0  0  0  0  0  0  0  0  0  0  0  0
    4.0151   -3.0083   -0.0847 H   0  0  0  0  0  0  0  0  0  0  0  0
    3.3440   -1.8379    1.1011 H   0  0  0  0  0  0  0  0  0  0  0  0
    1.6036   -0.6095   -2.7219 H   0  0  0  0  0  0  0  0  0  0  0  0
    2.5420    0.8200   -2.2223 H   0  0  0  0  0  0  0  0  0  0  0  0
    0.6314    3.7978    1.0990 H   0  0  0  0  0  0  0  0  0  0  0  0
    1.8797    2.6470    1.6224 H   0  0  0  0  0  0  0  0  0  0  0  0
    3.5984    3.9179    0.3190 H   0  0  0  0  0  0  0  0  0  0  0  0
    2.3586    5.0578   -0.2202 H   0  0  0  0  0  0  0  0  0  0  0  0
    2.8059    4.9800    1.4910 H   0  0  0  0  0  0  0  0  0  0  0  0
   -3.4561    0.2790    2.3667 H   0  0  0  0  0  0  0  0  0  0  0  0
   -4.5902    0.0346    1.0095 H   0  0  0  0  0  0  0  0  0  0  0  0
   -4.2189    1.6942    1.5800 H   0  0  0  0  0  0  0  0  0  0  0  0
   -2.0180   -3.0310   -1.2400 H   0  0  0  0  0  0  0  0  0  0  0  0
   -3.4290   -3.3974   -0.2012 H   0  0  0  0  0  0  0  0  0  0  0  0
   -1.8130   -3.1660    0.5313 H   0  0  0  0  0  0  0  0  0  0  0  0
  1  2  1  0  0  0  0
  2  3  1  0  0  0  0
  3  4  4  0  0  0  0
  4  5  2  0  0  0  0
  4  6  1  0  0  0  0
  6  7  1  0  0  0  0
  7  8  1  0  0  0  0
  7  9  1  0  0  0  0
  9 10  2  0  0  0  0
  9 11  4  0  0  0  0
 11 12  1  0  0  0  0
 12 13  1  0  0  0  0
  7 14  1  0  0  0  0
 14 15  1  0  0  0  0
 15 16  2  0  0  0  0
 15 17  1  0  0  0  0
 17 18  1  0  0  0  0
 15 19  1  0  0  0  0
 19 20  1  0  0  0  0
  1 21  1  0  0  0  0
  1 22  1  0  0  0  0
  1 23  1  0  0  0  0
  2 24  1  0  0  0  0
  2 25  1  0  0  0  0
  6 26  1  0  0  0  0
  6 27  1  0  0  0  0
 12 28  1  0  0  0  0
 12 29  1  0  0  0  0
 13 30  1  0  0  0  0
 13 31  1  0  0  0  0
 13 32  1  0  0  0  0
 18 33  1  0  0  0  0
 18 34  1  0  0  0  0
 18 35  1  0  0  0  0
 20 36  1  0  0  0  0
 20 37  1  0  0  0  0
 20 38  1  0  0  0  0
M  END
