 xtb: 6.7.1 (edcfbbe)
          04092505213D

 41 40  0     0  0            999 V2000
    4.1380    2.5578    0.7781 C   0  0  0  0  0  0  0  0  0  0  0  0
    4.6499    1.4112   -0.0691 C   0  0  0  0  0  0  0  0  0  0  0  0
    3.5857    0.7630   -0.7903 O   0  0  0  0  0  0  0  0  0  0  0  0
    2.4878   -0.1271   -0.0613 P   0  0  0  0  0  0  0  0  0  0  0  0
    3.1834   -1.2160    1.4179 S   0  0  0  0  0  0  0  0  0  0  0  0
    1.8371   -0.8925   -1.2835 O   0  0  0  0  0  0  0  0  0  0  0  0
    2.4305   -2.0745   -1.8673 C   0  0  0  0  0  0  0  0  0  0  0  0
    1.8408   -3.3303   -1.2572 C   0  0  0  0  0  0  0  0  0  0  0  0
    0.9071    1.1697    0.3885 S   0  0  0  0  0  0  0  0  0  0  0  0
   -0.0023   -0.0261    1.4434 C   0  0  0  0  0  0  0  0  0  0  0  0
   -1.7032    0.4928    1.6583 S   0  0  0  0  0  0  0  0  0  0  0  0
   -2.3392    0.0179   -0.3280 P   0  0  0  0  0  0  0  0  0  0  0  0
   -1.5356   -1.5869   -1.1107 S   0  0  0  0  0  0  0  0  0  0  0  0
   -2.0236    1.2481   -1.2575 O   0  0  0  0  0  0  0  0  0  0  0  0
   -2.1033    2.6548   -0.9169 C   0  0  0  0  0  0  0  0  0  0  0  0
   -3.4286    3.0552   -0.3059 C   0  0  0  0  0  0  0  0  0  0  0  0
   -3.9220    0.0518   -0.2354 O   0  0  0  0  0  0  0  0  0  0  0  0
   -4.7172   -0.6051    0.7690 C   0  0  0  0  0  0  0  0  0  0  0  0
   -4.4305   -2.0886    0.8700 C   0  0  0  0  0  0  0  0  0  0  0  0
    3.5561    3.2460    0.1702 H   0  0  0  0  0  0  0  0  0  0  0  0
    3.5049    2.1750    1.5778 H   0  0  0  0  0  0  0  0  0  0  0  0
    4.9795    3.0845    1.2165 H   0  0  0  0  0  0  0  0  0  0  0  0
    5.1498    0.6631    0.5546 H   0  0  0  0  0  0  0  0  0  0  0  0
    5.3256    1.7555   -0.8530 H   0  0  0  0  0  0  0  0  0  0  0  0
    2.1886   -1.9995   -2.9286 H   0  0  0  0  0  0  0  0  0  0  0  0
    3.5148   -2.0367   -1.7302 H   0  0  0  0  0  0  0  0  0  0  0  0
    2.2186   -4.1982   -1.7874 H   0  0  0  0  0  0  0  0  0  0  0  0
    2.1147   -3.4076   -0.2069 H   0  0  0  0  0  0  0  0  0  0  0  0
    0.7560   -3.3027   -1.3360 H   0  0  0  0  0  0  0  0  0  0  0  0
    0.4613   -0.0667    2.4266 H   0  0  0  0  0  0  0  0  0  0  0  0
    0.0149   -1.0019    0.9511 H   0  0  0  0  0  0  0  0  0  0  0  0
   -1.2725    2.8792   -0.2409 H   0  0  0  0  0  0  0  0  0  0  0  0
   -1.9372    3.1480   -1.8759 H   0  0  0  0  0  0  0  0  0  0  0  0
   -3.5484    2.6037    0.6767 H   0  0  0  0  0  0  0  0  0  0  0  0
   -3.4509    4.1356   -0.2005 H   0  0  0  0  0  0  0  0  0  0  0  0
   -4.2491    2.7398   -0.9451 H   0  0  0  0  0  0  0  0  0  0  0  0
   -4.5324   -0.1105    1.7265 H   0  0  0  0  0  0  0  0  0  0  0  0
   -5.7427   -0.4192    0.4451 H   0  0  0  0  0  0  0  0  0  0  0  0
   -3.4095   -2.2530    1.2115 H   0  0  0  0  0  0  0  0  0  0  0  0
   -5.1169   -2.5416    1.5780 H   0  0  0  0  0  0  0  0  0  0  0  0
   -4.5471   -2.5652   -0.1006 H   0  0  0  0  0  0  0  0  0  0  0  0
  1  2  1  0  0  0  0
  2  3  1  0  0  0  0
  3  4  2  0  0  0  0
  4  5  2  0  0  0  0
  4  6  2  0  0  0  0
  6  7  1  0  0  0  0
  7  8  1  0  0  0  0
  4  9  1  0  0  0  0
  9 10  1  0  0  0  0
 10 11  1  0  0  0  0
 11 12  1  0  0  0  0
 12 13  2  0  0  0  0
 12 14  2  0  0  0  0
 14 15  1  0  0  0  0
 15 16  1  0  0  0  0
 12 17  2  0  0  0  0
 17 18  1  0  0  0  0
 18 19  1  0  0  0  0
  1 20  1  0  0  0  0
  1 21  1  0  0  0  0
  1 22  1  0  0  0  0
  2 23  1  0  0  0  0
  2 24  1  0  0  0  0
  7 25  1  0  0  0  0
  7 26  1  0  0  0  0
  8 27  1  0  0  0  0
  8 28  1  0  0  0  0
  8 29  1  0  0  0  0
 10 30  1  0  0  0  0
 10 31  1  0  0  0  0
 15 32  1  0  0  0  0
 15 33  1  0  0  0  0
 16 34  1  0  0  0  0
 16 35  1  0  0  0  0
 16 36  1  0  0  0  0
 18 37  1  0  0  0  0
 18 38  1  0  0  0  0
 19 39  1  0  0  0  0
 19 40  1  0  0  0  0
 19 41  1  0  0  0  0
M  END
