 xtb: 6.7.1 (edcfbbe)
          04092505213D

 41 40  0     0  0            999 V2000
    2.1031   -1.2504   -3.0127 C   0  0  0  0  0  0  0  0  0  0  0  0
    3.3491   -0.5548   -2.5062 C   0  0  0  0  0  0  0  0  0  0  0  0
    3.4688   -0.6372   -1.0732 O   0  0  0  0  0  0  0  0  0  0  0  0
    2.3876    0.0010   -0.0996 P   0  0  0  0  0  0  0  0  0  0  0  0
    1.6739    1.7431   -0.6400 S   0  0  0  0  0  0  0  0  0  0  0  0
    3.1661    0.1118    1.2698 O   0  0  0  0  0  0  0  0  0  0  0  0
    4.1359   -0.8506    1.7658 C   0  0  0  0  0  0  0  0  0  0  0  0
    3.4925   -1.8713    2.6835 C   0  0  0  0  0  0  0  0  0  0  0  0
    0.9985   -1.5868    0.1669 S   0  0  0  0  0  0  0  0  0  0  0  0
    0.0385   -0.8622    1.5379 C   0  0  0  0  0  0  0  0  0  0  0  0
   -1.7377   -1.0721    1.2959 S   0  0  0  0  0  0  0  0  0  0  0  0
   -2.0467    0.7041    0.1608 P   0  0  0  0  0  0  0  0  0  0  0  0
   -1.4393    2.3056    1.1161 S   0  0  0  0  0  0  0  0  0  0  0  0
   -3.5923    0.6562   -0.1831 O   0  0  0  0  0  0  0  0  0  0  0  0
   -4.5836    0.8929    0.8392 C   0  0  0  0  0  0  0  0  0  0  0  0
   -5.8993    1.1906    0.1497 C   0  0  0  0  0  0  0  0  0  0  0  0
   -1.3632    0.5194   -1.2437 O   0  0  0  0  0  0  0  0  0  0  0  0
   -1.9261   -0.2042   -2.3711 C   0  0  0  0  0  0  0  0  0  0  0  0
   -2.0676   -1.6874   -2.1019 C   0  0  0  0  0  0  0  0  0  0  0  0
    2.1058   -1.2511   -4.0979 H   0  0  0  0  0  0  0  0  0  0  0  0
    2.0636   -2.2737   -2.6474 H   0  0  0  0  0  0  0  0  0  0  0  0
    1.2224   -0.7140   -2.6608 H   0  0  0  0  0  0  0  0  0  0  0  0
    3.3411    0.5022   -2.7887 H   0  0  0  0  0  0  0  0  0  0  0  0
    4.2598   -1.0328   -2.8698 H   0  0  0  0  0  0  0  0  0  0  0  0
    4.6235   -1.3280    0.9153 H   0  0  0  0  0  0  0  0  0  0  0  0
    4.8551   -0.2327    2.3061 H   0  0  0  0  0  0  0  0  0  0  0  0
    4.2746   -2.4751    3.1333 H   0  0  0  0  0  0  0  0  0  0  0  0
    2.9380   -1.3682    3.4717 H   0  0  0  0  0  0  0  0  0  0  0  0
    2.8210   -2.5230    2.1302 H   0  0  0  0  0  0  0  0  0  0  0  0
    0.2659    0.2056    1.6062 H   0  0  0  0  0  0  0  0  0  0  0  0
    0.2938   -1.3818    2.4575 H   0  0  0  0  0  0  0  0  0  0  0  0
   -4.6488   -0.0042    1.4601 H   0  0  0  0  0  0  0  0  0  0  0  0
   -4.2510    1.7331    1.4575 H   0  0  0  0  0  0  0  0  0  0  0  0
   -6.6622    1.3626    0.9017 H   0  0  0  0  0  0  0  0  0  0  0  0
   -5.8035    2.0769   -0.4715 H   0  0  0  0  0  0  0  0  0  0  0  0
   -6.1914    0.3510   -0.4741 H   0  0  0  0  0  0  0  0  0  0  0  0
   -2.8895    0.2464   -2.6138 H   0  0  0  0  0  0  0  0  0  0  0  0
   -1.2112   -0.0025   -3.1708 H   0  0  0  0  0  0  0  0  0  0  0  0
   -2.3788   -2.1793   -3.0181 H   0  0  0  0  0  0  0  0  0  0  0  0
   -1.1208   -2.1107   -1.7741 H   0  0  0  0  0  0  0  0  0  0  0  0
   -2.8158   -1.8641   -1.3325 H   0  0  0  0  0  0  0  0  0  0  0  0
  1  2  1  0  0  0  0
  2  3  1  0  0  0  0
  3  4  2  0  0  0  0
  4  5  2  0  0  0  0
  4  6  2  0  0  0  0
  6  7  1  0  0  0  0
  7  8  1  0  0  0  0
  4  9  1  0  0  0  0
  9 10  1  0  0  0  0
 10 11  1  0  0  0  0
 11 12  1  0  0  0  0
 12 13  2  0  0  0  0
 12 14  2  0  0  0  0
 14 15  1  0  0  0  0
 15 16  1  0  0  0  0
 12 17  2  0  0  0  0
 17 18  1  0  0  0  0
 18 19  1  0  0  0  0
  1 20  1  0  0  0  0
  1 21  1  0  0  0  0
  1 22  1  0  0  0  0
  2 23  1  0  0  0  0
  2 24  1  0  0  0  0
  7 25  1  0  0  0  0
  7 26  1  0  0  0  0
  8 27  1  0  0  0  0
  8 28  1  0  0  0  0
  8 29  1  0  0  0  0
 10 30  1  0  0  0  0
 10 31  1  0  0  0  0
 15 32  1  0  0  0  0
 15 33  1  0  0  0  0
 16 34  1  0  0  0  0
 16 35  1  0  0  0  0
 16 36  1  0  0  0  0
 18 37  1  0  0  0  0
 18 38  1  0  0  0  0
 19 39  1  0  0  0  0
 19 40  1  0  0  0  0
 19 41  1  0  0  0  0
M  END
