 xtb: 6.7.1 (edcfbbe)
          04092505213D

 41 40  0     0  0            999 V2000
    1.2607   -2.9289    0.7768 C   0  0  0  0  0  0  0  0  0  0  0  0
    2.7419   -2.6309    0.6593 C   0  0  0  0  0  0  0  0  0  0  0  0
    3.0440   -1.2763    1.0399 O   0  0  0  0  0  0  0  0  0  0  0  0
    2.7811   -0.0479    0.0842 P   0  0  0  0  0  0  0  0  0  0  0  0
    3.0795   -0.3554   -1.8351 S   0  0  0  0  0  0  0  0  0  0  0  0
    3.7992    0.9306    0.7972 O   0  0  0  0  0  0  0  0  0  0  0  0
    3.9740    2.2803    0.3220 C   0  0  0  0  0  0  0  0  0  0  0  0
    5.1939    2.8569    1.0113 C   0  0  0  0  0  0  0  0  0  0  0  0
    0.8815    0.7826    0.5940 S   0  0  0  0  0  0  0  0  0  0  0  0
    0.0317    0.6652   -1.0071 C   0  0  0  0  0  0  0  0  0  0  0  0
   -1.1496   -0.6969   -1.0996 S   0  0  0  0  0  0  0  0  0  0  0  0
   -2.8685    0.2815   -0.2821 P   0  0  0  0  0  0  0  0  0  0  0  0
   -2.7632    2.2385   -0.2819 S   0  0  0  0  0  0  0  0  0  0  0  0
   -3.1470   -0.4602    1.1009 O   0  0  0  0  0  0  0  0  0  0  0  0
   -2.1948   -0.6019    2.1672 C   0  0  0  0  0  0  0  0  0  0  0  0
   -1.9689    0.6957    2.9160 C   0  0  0  0  0  0  0  0  0  0  0  0
   -4.1122   -0.1764   -1.1296 O   0  0  0  0  0  0  0  0  0  0  0  0
   -4.7385   -1.4825   -1.0892 C   0  0  0  0  0  0  0  0  0  0  0  0
   -3.8142   -2.5848   -1.5605 C   0  0  0  0  0  0  0  0  0  0  0  0
    1.0930   -3.9874    0.6061 H   0  0  0  0  0  0  0  0  0  0  0  0
    0.9056   -2.6634    1.7694 H   0  0  0  0  0  0  0  0  0  0  0  0
    0.7029   -2.3631    0.0311 H   0  0  0  0  0  0  0  0  0  0  0  0
    3.0930   -2.7975   -0.3646 H   0  0  0  0  0  0  0  0  0  0  0  0
    3.3290   -3.2347    1.3529 H   0  0  0  0  0  0  0  0  0  0  0  0
    4.1033    2.2568   -0.7659 H   0  0  0  0  0  0  0  0  0  0  0  0
    3.0732    2.8537    0.5621 H   0  0  0  0  0  0  0  0  0  0  0  0
    5.3392    3.8809    0.6832 H   0  0  0  0  0  0  0  0  0  0  0  0
    5.0519    2.8385    2.0877 H   0  0  0  0  0  0  0  0  0  0  0  0
    6.0736    2.2702    0.7628 H   0  0  0  0  0  0  0  0  0  0  0  0
    0.7772    0.4981   -1.7877 H   0  0  0  0  0  0  0  0  0  0  0  0
   -0.5082    1.6017   -1.1562 H   0  0  0  0  0  0  0  0  0  0  0  0
   -2.6405   -1.3606    2.8132 H   0  0  0  0  0  0  0  0  0  0  0  0
   -1.2540   -0.9764    1.7523 H   0  0  0  0  0  0  0  0  0  0  0  0
   -1.4973    1.4314    2.2669 H   0  0  0  0  0  0  0  0  0  0  0  0
   -2.9155    1.0983    3.2670 H   0  0  0  0  0  0  0  0  0  0  0  0
   -1.3179    0.5112    3.7643 H   0  0  0  0  0  0  0  0  0  0  0  0
   -5.0815   -1.6649   -0.0693 H   0  0  0  0  0  0  0  0  0  0  0  0
   -5.5953   -1.3651   -1.7545 H   0  0  0  0  0  0  0  0  0  0  0  0
   -2.9787   -2.7023   -0.8728 H   0  0  0  0  0  0  0  0  0  0  0  0
   -4.3686   -3.5171   -1.6044 H   0  0  0  0  0  0  0  0  0  0  0  0
   -3.4218   -2.3554   -2.5480 H   0  0  0  0  0  0  0  0  0  0  0  0
  1  2  1  0  0  0  0
  2  3  1  0  0  0  0
  3  4  2  0  0  0  0
  4  5  2  0  0  0  0
  4  6  2  0  0  0  0
  6  7  1  0  0  0  0
  7  8  1  0  0  0  0
  4  9  1  0  0  0  0
  9 10  1  0  0  0  0
 10 11  1  0  0  0  0
 11 12  1  0  0  0  0
 12 13  2  0  0  0  0
 12 14  2  0  0  0  0
 14 15  1  0  0  0  0
 15 16  1  0  0  0  0
 12 17  2  0  0  0  0
 17 18  1  0  0  0  0
 18 19  1  0  0  0  0
  1 20  1  0  0  0  0
  1 21  1  0  0  0  0
  1 22  1  0  0  0  0
  2 23  1  0  0  0  0
  2 24  1  0  0  0  0
  7 25  1  0  0  0  0
  7 26  1  0  0  0  0
  8 27  1  0  0  0  0
  8 28  1  0  0  0  0
  8 29  1  0  0  0  0
 10 30  1  0  0  0  0
 10 31  1  0  0  0  0
 15 32  1  0  0  0  0
 15 33  1  0  0  0  0
 16 34  1  0  0  0  0
 16 35  1  0  0  0  0
 16 36  1  0  0  0  0
 18 37  1  0  0  0  0
 18 38  1  0  0  0  0
 19 39  1  0  0  0  0
 19 40  1  0  0  0  0
 19 41  1  0  0  0  0
M  END
