 xtb: 6.7.1 (edcfbbe)
          04092507313D

 38 37  0     0  0            999 V2000
    4.1415   -2.3392    1.3120 C   0  0  0  0  0  0  0  0  0  0  0  0
    2.8178   -1.6027    1.2885 C   0  0  0  0  0  0  0  0  0  0  0  0
    2.5750   -1.1729   -0.0671 O   0  0  0  0  0  0  0  0  0  0  0  0
    1.5585   -0.3941   -0.3044 C   0  0  0  0  0  0  0  0  0  0  0  0
    0.8042    0.0423    0.5553 O   0  0  0  0  0  0  0  0  0  0  0  0
    1.3948   -0.0383   -1.7601 C   0  0  0  0  0  0  0  0  0  0  0  0
    0.2336    0.9369   -1.8873 C   0  0  0  0  0  0  0  0  0  0  0  0
    0.2111    1.3879   -2.8827 H   0  0  0  0  0  0  0  0  0  0  0  0
    0.3164    2.0472   -0.8465 C   0  0  0  0  0  0  0  0  0  0  0  0
   -0.6333    2.4875   -0.2426 O   0  0  0  0  0  0  0  0  0  0  0  0
    1.5512    2.5038   -0.7611 O   0  0  0  0  0  0  0  0  0  0  0  0
    1.8469    3.5356    0.2027 C   0  0  0  0  0  0  0  0  0  0  0  0
    2.5470    2.9329    1.4100 C   0  0  0  0  0  0  0  0  0  0  0  0
   -1.4023    0.1340   -1.7770 S   0  0  0  0  0  0  0  0  0  0  0  0
   -1.7072   -0.7376    0.1319 P   0  0  0  0  0  0  0  0  0  0  0  0
   -0.7949   -2.3966    0.6789 S   0  0  0  0  0  0  0  0  0  0  0  0
   -1.9350    0.3882    1.2191 O   0  0  0  0  0  0  0  0  0  0  0  0
   -1.2342    0.5266    2.4515 C   0  0  0  0  0  0  0  0  0  0  0  0
   -3.2679   -1.0372   -0.0870 O   0  0  0  0  0  0  0  0  0  0  0  0
   -3.7209   -2.0801   -0.9542 C   0  0  0  0  0  0  0  0  0  0  0  0
    4.3419   -2.6793    2.3223 H   0  0  0  0  0  0  0  0  0  0  0  0
    4.0977   -3.1970    0.6482 H   0  0  0  0  0  0  0  0  0  0  0  0
    4.9423   -1.6817    0.9877 H   0  0  0  0  0  0  0  0  0  0  0  0
    2.8276   -0.7191    1.9345 H   0  0  0  0  0  0  0  0  0  0  0  0
    1.9867   -2.2473    1.5917 H   0  0  0  0  0  0  0  0  0  0  0  0
    1.2086   -0.9455   -2.3371 H   0  0  0  0  0  0  0  0  0  0  0  0
    2.3207    0.4153   -2.1171 H   0  0  0  0  0  0  0  0  0  0  0  0
    2.4946    4.2383   -0.3231 H   0  0  0  0  0  0  0  0  0  0  0  0
    0.9108    4.0227    0.4892 H   0  0  0  0  0  0  0  0  0  0  0  0
    1.9159    2.1689    1.8611 H   0  0  0  0  0  0  0  0  0  0  0  0
    3.4876    2.4788    1.1107 H   0  0  0  0  0  0  0  0  0  0  0  0
    2.7395    3.7102    2.1419 H   0  0  0  0  0  0  0  0  0  0  0  0
   -1.9867    0.7211    3.2128 H   0  0  0  0  0  0  0  0  0  0  0  0
   -0.5474    1.3674    2.3652 H   0  0  0  0  0  0  0  0  0  0  0  0
   -0.6804   -0.3850    2.6833 H   0  0  0  0  0  0  0  0  0  0  0  0
   -3.6338   -1.7677   -1.9946 H   0  0  0  0  0  0  0  0  0  0  0  0
   -4.7621   -2.2479   -0.6904 H   0  0  0  0  0  0  0  0  0  0  0  0
   -3.1361   -2.9871   -0.7860 H   0  0  0  0  0  0  0  0  0  0  0  0
  1  2  1  0  0  0  0
  2  3  1  0  0  0  0
  3  4  4  0  0  0  0
  4  5  2  0  0  0  0
  4  6  1  0  0  0  0
  6  7  1  0  0  0  0
  7  8  1  0  0  0  0
  7  9  1  0  0  0  0
  9 10  2  0  0  0  0
  9 11  1  0  0  0  0
 11 12  1  0  0  0  0
 12 13  1  0  0  0  0
  7 14  1  0  0  0  0
 14 15  1  0  0  0  0
 15 16  2  0  0  0  0
 15 17  2  0  0  0  0
 17 18  1  0  0  0  0
 15 19  1  0  0  0  0
 19 20  1  0  0  0  0
  1 21  1  0  0  0  0
  1 22  1  0  0  0  0
  1 23  1  0  0  0  0
  2 24  1  0  0  0  0
  2 25  1  0  0  0  0
  6 26  1  0  0  0  0
  6 27  1  0  0  0  0
 12 28  1  0  0  0  0
 12 29  1  0  0  0  0
 13 30  1  0  0  0  0
 13 31  1  0  0  0  0
 13 32  1  0  0  0  0
 18 33  1  0  0  0  0
 18 34  1  0  0  0  0
 18 35  1  0  0  0  0
 20 36  1  0  0  0  0
 20 37  1  0  0  0  0
 20 38  1  0  0  0  0
M  END
