 xtb: 6.7.1 (edcfbbe)
          04092507313D

 38 37  0     0  0            999 V2000
    1.8905   -3.6643   -2.1717 C   0  0  0  0  0  0  0  0  0  0  0  0
    3.1232   -2.8849   -1.7426 C   0  0  0  0  0  0  0  0  0  0  0  0
    2.7459   -1.6171   -1.1736 O   0  0  0  0  0  0  0  0  0  0  0  0
    2.4231   -1.5718    0.1037 C   0  0  0  0  0  0  0  0  0  0  0  0
    2.4964   -2.5082    0.8671 O   0  0  0  0  0  0  0  0  0  0  0  0
    1.9609   -0.1872    0.5210 C   0  0  0  0  0  0  0  0  0  0  0  0
    1.1062    0.4701   -0.5606 C   0  0  0  0  0  0  0  0  0  0  0  0
    1.7002    0.6200   -1.4660 H   0  0  0  0  0  0  0  0  0  0  0  0
    0.5434    1.7981   -0.0960 C   0  0  0  0  0  0  0  0  0  0  0  0
   -0.6508    2.0229   -0.0685 O   0  0  0  0  0  0  0  0  0  0  0  0
    1.4784    2.6272    0.2695 O   0  0  0  0  0  0  0  0  0  0  0  0
    1.0873    3.9256    0.7702 C   0  0  0  0  0  0  0  0  0  0  0  0
    0.8387    4.8976   -0.3708 C   0  0  0  0  0  0  0  0  0  0  0  0
   -0.2857   -0.5784   -1.0867 S   0  0  0  0  0  0  0  0  0  0  0  0
   -1.6860   -0.2580    0.4951 P   0  0  0  0  0  0  0  0  0  0  0  0
   -1.1531    0.3220    2.2913 S   0  0  0  0  0  0  0  0  0  0  0  0
   -2.9952    0.4000   -0.1428 O   0  0  0  0  0  0  0  0  0  0  0  0
   -3.3906    1.7707   -0.1267 C   0  0  0  0  0  0  0  0  0  0  0  0
   -2.2275   -1.7499    0.6584 O   0  0  0  0  0  0  0  0  0  0  0  0
   -2.8008   -2.5063   -0.4199 C   0  0  0  0  0  0  0  0  0  0  0  0
    2.1958   -4.5772   -2.6717 H   0  0  0  0  0  0  0  0  0  0  0  0
    1.2913   -3.9205   -1.3007 H   0  0  0  0  0  0  0  0  0  0  0  0
    1.2868   -3.0633   -2.8465 H   0  0  0  0  0  0  0  0  0  0  0  0
    3.7476   -2.6238   -2.5968 H   0  0  0  0  0  0  0  0  0  0  0  0
    3.7001   -3.4453   -1.0016 H   0  0  0  0  0  0  0  0  0  0  0  0
    2.8398    0.4345    0.7054 H   0  0  0  0  0  0  0  0  0  0  0  0
    1.4067   -0.2863    1.4578 H   0  0  0  0  0  0  0  0  0  0  0  0
    0.1934    3.8025    1.3877 H   0  0  0  0  0  0  0  0  0  0  0  0
    1.9318    4.2368    1.3845 H   0  0  0  0  0  0  0  0  0  0  0  0
    0.6117    5.8758    0.0395 H   0  0  0  0  0  0  0  0  0  0  0  0
    1.7211    4.9695   -1.0005 H   0  0  0  0  0  0  0  0  0  0  0  0
   -0.0032    4.5653   -0.9733 H   0  0  0  0  0  0  0  0  0  0  0  0
   -2.9533    2.2892   -0.9774 H   0  0  0  0  0  0  0  0  0  0  0  0
   -3.0688    2.2470    0.7990 H   0  0  0  0  0  0  0  0  0  0  0  0
   -4.4764    1.7594   -0.1938 H   0  0  0  0  0  0  0  0  0  0  0  0
   -2.1105   -2.5387   -1.2635 H   0  0  0  0  0  0  0  0  0  0  0  0
   -3.7441   -2.0579   -0.7260 H   0  0  0  0  0  0  0  0  0  0  0  0
   -2.9586   -3.5033   -0.0162 H   0  0  0  0  0  0  0  0  0  0  0  0
  1  2  1  0  0  0  0
  2  3  1  0  0  0  0
  3  4  1  0  0  0  0
  4  5  2  0  0  0  0
  4  6  1  0  0  0  0
  6  7  1  0  0  0  0
  7  8  1  0  0  0  0
  7  9  1  0  0  0  0
  9 10  2  0  0  0  0
  9 11  4  0  0  0  0
 11 12  1  0  0  0  0
 12 13  1  0  0  0  0
  7 14  1  0  0  0  0
 14 15  1  0  0  0  0
 15 16  2  0  0  0  0
 15 17  2  0  0  0  0
 17 18  1  0  0  0  0
 15 19  1  0  0  0  0
 19 20  1  0  0  0  0
  1 21  1  0  0  0  0
  1 22  1  0  0  0  0
  1 23  1  0  0  0  0
  2 24  1  0  0  0  0
  2 25  1  0  0  0  0
  6 26  1  0  0  0  0
  6 27  1  0  0  0  0
 12 28  1  0  0  0  0
 12 29  1  0  0  0  0
 13 30  1  0  0  0  0
 13 31  1  0  0  0  0
 13 32  1  0  0  0  0
 18 33  1  0  0  0  0
 18 34  1  0  0  0  0
 18 35  1  0  0  0  0
 20 36  1  0  0  0  0
 20 37  1  0  0  0  0
 20 38  1  0  0  0  0
M  END
