 xtb: 6.7.1 (edcfbbe)
          04092505203D

 41 40  0     0  0            999 V2000
    4.5995    0.3260   -1.9049 C   0  0  0  0  0  0  0  0  0  0  0  0
    4.3719    1.1892   -0.6810 C   0  0  0  0  0  0  0  0  0  0  0  0
    3.5155    0.5557    0.2860 O   0  0  0  0  0  0  0  0  0  0  0  0
    1.9711    0.2826    0.0205 P   0  0  0  0  0  0  0  0  0  0  0  0
    1.0310    1.7226   -0.9086 S   0  0  0  0  0  0  0  0  0  0  0  0
    1.4120    0.0332    1.4733 O   0  0  0  0  0  0  0  0  0  0  0  0
    1.9182   -0.9761    2.3831 C   0  0  0  0  0  0  0  0  0  0  0  0
    2.9565   -0.3917    3.3179 C   0  0  0  0  0  0  0  0  0  0  0  0
    1.9888   -1.6277   -0.9197 S   0  0  0  0  0  0  0  0  0  0  0  0
    0.2329   -1.7585   -1.3214 C   0  0  0  0  0  0  0  0  0  0  0  0
   -0.8315   -1.9059    0.1510 S   0  0  0  0  0  0  0  0  0  0  0  0
   -1.9807   -0.1462   -0.0171 P   0  0  0  0  0  0  0  0  0  0  0  0
   -2.2150    0.4725   -1.8686 S   0  0  0  0  0  0  0  0  0  0  0  0
   -1.2967    0.7810    1.0639 O   0  0  0  0  0  0  0  0  0  0  0  0
   -1.9336    1.8989    1.7196 C   0  0  0  0  0  0  0  0  0  0  0  0
   -2.4516    2.9260    0.7357 C   0  0  0  0  0  0  0  0  0  0  0  0
   -3.3292   -0.5311    0.7350 O   0  0  0  0  0  0  0  0  0  0  0  0
   -4.3871   -1.2649    0.0848 C   0  0  0  0  0  0  0  0  0  0  0  0
   -5.4945   -0.3241   -0.3482 C   0  0  0  0  0  0  0  0  0  0  0  0
    5.3620    0.7834   -2.5272 H   0  0  0  0  0  0  0  0  0  0  0  0
    4.9203   -0.6704   -1.6118 H   0  0  0  0  0  0  0  0  0  0  0  0
    3.6792    0.2437   -2.4808 H   0  0  0  0  0  0  0  0  0  0  0  0
    3.9229    2.1466   -0.9629 H   0  0  0  0  0  0  0  0  0  0  0  0
    5.2990    1.3613   -0.1323 H   0  0  0  0  0  0  0  0  0  0  0  0
    1.0331   -1.3157    2.9253 H   0  0  0  0  0  0  0  0  0  0  0  0
    2.3312   -1.8046    1.8007 H   0  0  0  0  0  0  0  0  0  0  0  0
    2.5431    0.4601    3.8511 H   0  0  0  0  0  0  0  0  0  0  0  0
    3.2537   -1.1526    4.0328 H   0  0  0  0  0  0  0  0  0  0  0  0
    3.8279   -0.0657    2.7568 H   0  0  0  0  0  0  0  0  0  0  0  0
    0.1278   -2.6699   -1.9044 H   0  0  0  0  0  0  0  0  0  0  0  0
   -0.0905   -0.8850   -1.8958 H   0  0  0  0  0  0  0  0  0  0  0  0
   -2.7393    1.5094    2.3461 H   0  0  0  0  0  0  0  0  0  0  0  0
   -1.1366    2.3097    2.3422 H   0  0  0  0  0  0  0  0  0  0  0  0
   -3.2523    2.4988    0.1331 H   0  0  0  0  0  0  0  0  0  0  0  0
   -2.8314    3.7879    1.2752 H   0  0  0  0  0  0  0  0  0  0  0  0
   -1.6507    3.2414    0.0686 H   0  0  0  0  0  0  0  0  0  0  0  0
   -3.9785   -1.8034   -0.7743 H   0  0  0  0  0  0  0  0  0  0  0  0
   -4.7355   -1.9781    0.8336 H   0  0  0  0  0  0  0  0  0  0  0  0
   -5.1235    0.3643   -1.1047 H   0  0  0  0  0  0  0  0  0  0  0  0
   -6.3103   -0.9029   -0.7686 H   0  0  0  0  0  0  0  0  0  0  0  0
   -5.8578    0.2456    0.5025 H   0  0  0  0  0  0  0  0  0  0  0  0
  1  2  1  0  0  0  0
  2  3  1  0  0  0  0
  3  4  2  0  0  0  0
  4  5  2  0  0  0  0
  4  6  2  0  0  0  0
  6  7  1  0  0  0  0
  7  8  1  0  0  0  0
  4  9  1  0  0  0  0
  9 10  1  0  0  0  0
 10 11  1  0  0  0  0
 11 12  1  0  0  0  0
 12 13  2  0  0  0  0
 12 14  2  0  0  0  0
 14 15  1  0  0  0  0
 15 16  1  0  0  0  0
 12 17  2  0  0  0  0
 17 18  1  0  0  0  0
 18 19  1  0  0  0  0
  1 20  1  0  0  0  0
  1 21  1  0  0  0  0
  1 22  1  0  0  0  0
  2 23  1  0  0  0  0
  2 24  1  0  0  0  0
  7 25  1  0  0  0  0
  7 26  1  0  0  0  0
  8 27  1  0  0  0  0
  8 28  1  0  0  0  0
  8 29  1  0  0  0  0
 10 30  1  0  0  0  0
 10 31  1  0  0  0  0
 15 32  1  0  0  0  0
 15 33  1  0  0  0  0
 16 34  1  0  0  0  0
 16 35  1  0  0  0  0
 16 36  1  0  0  0  0
 18 37  1  0  0  0  0
 18 38  1  0  0  0  0
 19 39  1  0  0  0  0
 19 40  1  0  0  0  0
 19 41  1  0  0  0  0
M  END
