 xtb: 6.7.1 (edcfbbe)
          04092505213D

 41 40  0     0  0            999 V2000
    4.4578    2.3837   -0.4546 C   0  0  0  0  0  0  0  0  0  0  0  0
    4.0287    1.1268   -1.1873 C   0  0  0  0  0  0  0  0  0  0  0  0
    3.7012    0.0676   -0.2685 O   0  0  0  0  0  0  0  0  0  0  0  0
    2.2373   -0.1477    0.3135 P   0  0  0  0  0  0  0  0  0  0  0  0
    1.5660    1.2783    1.4834 S   0  0  0  0  0  0  0  0  0  0  0  0
    2.3664   -1.5735    0.9786 O   0  0  0  0  0  0  0  0  0  0  0  0
    2.5327   -1.7314    2.4048 C   0  0  0  0  0  0  0  0  0  0  0  0
    3.9285   -1.3351    2.8347 C   0  0  0  0  0  0  0  0  0  0  0  0
    1.1210   -0.6031   -1.4478 S   0  0  0  0  0  0  0  0  0  0  0  0
   -0.0489   -1.7892   -0.7248 C   0  0  0  0  0  0  0  0  0  0  0  0
   -1.0729   -1.0944    0.5873 S   0  0  0  0  0  0  0  0  0  0  0  0
   -2.3399    0.0729   -0.6827 P   0  0  0  0  0  0  0  0  0  0  0  0
   -2.6434   -0.6731   -2.4643 S   0  0  0  0  0  0  0  0  0  0  0  0
   -1.6937    1.5024   -0.8207 O   0  0  0  0  0  0  0  0  0  0  0  0
   -1.5051    2.4221    0.2810 C   0  0  0  0  0  0  0  0  0  0  0  0
   -2.6264    3.4385    0.3206 C   0  0  0  0  0  0  0  0  0  0  0  0
   -3.5919    0.3587    0.2502 O   0  0  0  0  0  0  0  0  0  0  0  0
   -4.3250   -0.6388    0.9870 C   0  0  0  0  0  0  0  0  0  0  0  0
   -4.8164   -1.7729    0.1127 C   0  0  0  0  0  0  0  0  0  0  0  0
    4.7401    3.1405   -1.1794 H   0  0  0  0  0  0  0  0  0  0  0  0
    3.6432    2.7641    0.1575 H   0  0  0  0  0  0  0  0  0  0  0  0
    5.3062    2.1682    0.1889 H   0  0  0  0  0  0  0  0  0  0  0  0
    4.8448    0.7205   -1.7881 H   0  0  0  0  0  0  0  0  0  0  0  0
    3.1663    1.3192   -1.8343 H   0  0  0  0  0  0  0  0  0  0  0  0
    1.7798   -1.1217    2.9146 H   0  0  0  0  0  0  0  0  0  0  0  0
    2.3349   -2.7895    2.5791 H   0  0  0  0  0  0  0  0  0  0  0  0
    4.6692   -1.9018    2.2772 H   0  0  0  0  0  0  0  0  0  0  0  0
    4.0812   -0.2737    2.6426 H   0  0  0  0  0  0  0  0  0  0  0  0
    4.0481   -1.5245    3.8967 H   0  0  0  0  0  0  0  0  0  0  0  0
    0.4967   -2.6277   -0.3011 H   0  0  0  0  0  0  0  0  0  0  0  0
   -0.6907   -2.1019   -1.5513 H   0  0  0  0  0  0  0  0  0  0  0  0
   -1.4396    1.8595    1.2162 H   0  0  0  0  0  0  0  0  0  0  0  0
   -0.5412    2.8965    0.0868 H   0  0  0  0  0  0  0  0  0  0  0  0
   -2.4286    4.1504    1.1157 H   0  0  0  0  0  0  0  0  0  0  0  0
   -2.6830    3.9641   -0.6287 H   0  0  0  0  0  0  0  0  0  0  0  0
   -3.5765    2.9442    0.5051 H   0  0  0  0  0  0  0  0  0  0  0  0
   -3.6790   -1.0159    1.7848 H   0  0  0  0  0  0  0  0  0  0  0  0
   -5.1567   -0.0785    1.4178 H   0  0  0  0  0  0  0  0  0  0  0  0
   -5.3965   -1.3850   -0.7213 H   0  0  0  0  0  0  0  0  0  0  0  0
   -3.9727   -2.3324   -0.2885 H   0  0  0  0  0  0  0  0  0  0  0  0
   -5.4359   -2.4402    0.7032 H   0  0  0  0  0  0  0  0  0  0  0  0
  1  2  1  0  0  0  0
  2  3  1  0  0  0  0
  3  4  2  0  0  0  0
  4  5  2  0  0  0  0
  4  6  2  0  0  0  0
  6  7  1  0  0  0  0
  7  8  1  0  0  0  0
  4  9  1  0  0  0  0
  9 10  1  0  0  0  0
 10 11  1  0  0  0  0
 11 12  1  0  0  0  0
 12 13  2  0  0  0  0
 12 14  2  0  0  0  0
 14 15  1  0  0  0  0
 15 16  1  0  0  0  0
 12 17  2  0  0  0  0
 17 18  1  0  0  0  0
 18 19  1  0  0  0  0
  1 20  1  0  0  0  0
  1 21  1  0  0  0  0
  1 22  1  0  0  0  0
  2 23  1  0  0  0  0
  2 24  1  0  0  0  0
  7 25  1  0  0  0  0
  7 26  1  0  0  0  0
  8 27  1  0  0  0  0
  8 28  1  0  0  0  0
  8 29  1  0  0  0  0
 10 30  1  0  0  0  0
 10 31  1  0  0  0  0
 15 32  1  0  0  0  0
 15 33  1  0  0  0  0
 16 34  1  0  0  0  0
 16 35  1  0  0  0  0
 16 36  1  0  0  0  0
 18 37  1  0  0  0  0
 18 38  1  0  0  0  0
 19 39  1  0  0  0  0
 19 40  1  0  0  0  0
 19 41  1  0  0  0  0
M  END
