 xtb: 6.7.1 (edcfbbe)
          04032519423D

 20 20  0     0  0            999 V2000
    0.8494    1.2932   -0.9798 C   0  0  0  0  0  0  0  0  0  0  0  0
    1.4331    0.2925    0.0169 C   0  0  0  0  0  0  0  0  0  0  0  0
    2.4395    0.0302   -0.3299 H   0  0  0  0  0  0  0  0  0  0  0  0
    0.6018   -1.0087    0.0274 C   0  0  0  0  0  0  0  0  0  0  0  0
    0.5296   -1.3822    1.0601 H   0  0  0  0  0  0  0  0  0  0  0  0
   -0.8366   -0.7552   -0.4560 C   0  0  0  0  0  0  0  0  0  0  0  0
   -0.8549   -0.8100   -1.5568 H   0  0  0  0  0  0  0  0  0  0  0  0
   -1.2831    0.6690   -0.0623 C   0  0  0  0  0  0  0  0  0  0  0  0
   -2.3204    0.8369   -0.3847 H   0  0  0  0  0  0  0  0  0  0  0  0
   -0.5168    1.6288   -0.7397 O   0  0  0  0  0  0  0  0  0  0  0  0
   -1.2906    0.8706    1.3163 O   0  0  0  0  0  0  0  0  0  0  0  0
   -1.6486   -1.7562    0.1032 O   0  0  0  0  0  0  0  0  0  0  0  0
    1.2697   -1.9415   -0.7857 O   0  0  0  0  0  0  0  0  0  0  0  0
    1.4829    0.8994    1.2906 O   0  0  0  0  0  0  0  0  0  0  0  0
    0.9447    0.8752   -1.9886 H   0  0  0  0  0  0  0  0  0  0  0  0
    1.3938    2.2372   -0.9199 H   0  0  0  0  0  0  0  0  0  0  0  0
   -0.3727    1.0301    1.6168 H   0  0  0  0  0  0  0  0  0  0  0  0
   -2.5822   -1.5659   -0.0623 H   0  0  0  0  0  0  0  0  0  0  0  0
    0.7800   -2.7766   -0.7787 H   0  0  0  0  0  0  0  0  0  0  0  0
    2.0972    0.4204    1.8647 H   0  0  0  0  0  0  0  0  0  0  0  0
  1  2  1  0  0  0  0
  2  3  1  0  0  0  0
  2  4  1  0  0  0  0
  4  5  1  0  0  0  0
  4  6  1  0  0  0  0
  6  7  1  0  0  0  0
  6  8  1  0  0  0  0
  8  9  1  0  0  0  0
  1 10  1  0  0  0  0
  8 10  1  0  0  0  0
  8 11  1  0  0  0  0
  6 12  1  0  0  0  0
  4 13  1  0  0  0  0
  2 14  1  0  0  0  0
  1 15  1  0  0  0  0
  1 16  1  0  0  0  0
 11 17  1  0  0  0  0
 12 18  1  0  0  0  0
 13 19  1  0  0  0  0
 14 20  1  0  0  0  0
M  END
