 xtb: 6.7.1 (edcfbbe)
          04092505213D

 41 40  0     0  0            999 V2000
    5.6708   -0.3000   -0.8332 C   0  0  0  0  0  0  0  0  0  0  0  0
    4.5269   -1.1166   -1.3963 C   0  0  0  0  0  0  0  0  0  0  0  0
    3.4012   -1.1590   -0.4953 O   0  0  0  0  0  0  0  0  0  0  0  0
    2.5091    0.1155   -0.1892 P   0  0  0  0  0  0  0  0  0  0  0  0
    2.2121    1.2996   -1.7318 S   0  0  0  0  0  0  0  0  0  0  0  0
    3.2565    0.7745    1.0471 O   0  0  0  0  0  0  0  0  0  0  0  0
    2.9956    2.1198    1.4825 C   0  0  0  0  0  0  0  0  0  0  0  0
    1.6085    2.2636    2.0733 C   0  0  0  0  0  0  0  0  0  0  0  0
    0.8588   -0.8803    0.6451 S   0  0  0  0  0  0  0  0  0  0  0  0
    0.0320   -1.2286   -0.9510 C   0  0  0  0  0  0  0  0  0  0  0  0
   -1.6568   -1.7854   -0.7114 S   0  0  0  0  0  0  0  0  0  0  0  0
   -2.5702    0.0616   -0.1170 P   0  0  0  0  0  0  0  0  0  0  0  0
   -1.4522    1.6494   -0.3791 S   0  0  0  0  0  0  0  0  0  0  0  0
   -3.1360   -0.2327    1.3402 O   0  0  0  0  0  0  0  0  0  0  0  0
   -2.3215   -0.5252    2.4902 C   0  0  0  0  0  0  0  0  0  0  0  0
   -1.9047    0.7455    3.2034 C   0  0  0  0  0  0  0  0  0  0  0  0
   -3.9019    0.2034   -0.9412 O   0  0  0  0  0  0  0  0  0  0  0  0
   -5.1162   -0.5591   -0.7256 C   0  0  0  0  0  0  0  0  0  0  0  0
   -4.9267   -2.0377   -0.9876 C   0  0  0  0  0  0  0  0  0  0  0  0
    5.9285   -0.6519    0.1622 H   0  0  0  0  0  0  0  0  0  0  0  0
    6.5336   -0.3911   -1.4856 H   0  0  0  0  0  0  0  0  0  0  0  0
    5.3821    0.7485   -0.7726 H   0  0  0  0  0  0  0  0  0  0  0  0
    4.7996   -2.1653   -1.5207 H   0  0  0  0  0  0  0  0  0  0  0  0
    4.1890   -0.7003   -2.3510 H   0  0  0  0  0  0  0  0  0  0  0  0
    3.7727    2.3094    2.2243 H   0  0  0  0  0  0  0  0  0  0  0  0
    3.1200    2.7930    0.6280 H   0  0  0  0  0  0  0  0  0  0  0  0
    1.4481    1.5122    2.8427 H   0  0  0  0  0  0  0  0  0  0  0  0
    1.4986    3.2534    2.5044 H   0  0  0  0  0  0  0  0  0  0  0  0
    0.8565    2.1400    1.2929 H   0  0  0  0  0  0  0  0  0  0  0  0
    0.5555   -2.0354   -1.4589 H   0  0  0  0  0  0  0  0  0  0  0  0
    0.0386   -0.3101   -1.5435 H   0  0  0  0  0  0  0  0  0  0  0  0
   -2.9628   -1.1430    3.1220 H   0  0  0  0  0  0  0  0  0  0  0  0
   -1.4454   -1.1030    2.1785 H   0  0  0  0  0  0  0  0  0  0  0  0
   -1.2981    1.3628    2.5452 H   0  0  0  0  0  0  0  0  0  0  0  0
   -2.7811    1.3140    3.5018 H   0  0  0  0  0  0  0  0  0  0  0  0
   -1.3245    0.4880    4.0832 H   0  0  0  0  0  0  0  0  0  0  0  0
   -5.4530   -0.3803    0.2967 H   0  0  0  0  0  0  0  0  0  0  0  0
   -5.8164   -0.1116   -1.4327 H   0  0  0  0  0  0  0  0  0  0  0  0
   -4.5305   -2.1989   -1.9867 H   0  0  0  0  0  0  0  0  0  0  0  0
   -4.2336   -2.4668   -0.2661 H   0  0  0  0  0  0  0  0  0  0  0  0
   -5.8858   -2.5384   -0.8978 H   0  0  0  0  0  0  0  0  0  0  0  0
  1  2  1  0  0  0  0
  2  3  1  0  0  0  0
  3  4  2  0  0  0  0
  4  5  2  0  0  0  0
  4  6  2  0  0  0  0
  6  7  1  0  0  0  0
  7  8  1  0  0  0  0
  4  9  1  0  0  0  0
  9 10  1  0  0  0  0
 10 11  1  0  0  0  0
 11 12  1  0  0  0  0
 12 13  2  0  0  0  0
 12 14  2  0  0  0  0
 14 15  1  0  0  0  0
 15 16  1  0  0  0  0
 12 17  2  0  0  0  0
 17 18  1  0  0  0  0
 18 19  1  0  0  0  0
  1 20  1  0  0  0  0
  1 21  1  0  0  0  0
  1 22  1  0  0  0  0
  2 23  1  0  0  0  0
  2 24  1  0  0  0  0
  7 25  1  0  0  0  0
  7 26  1  0  0  0  0
  8 27  1  0  0  0  0
  8 28  1  0  0  0  0
  8 29  1  0  0  0  0
 10 30  1  0  0  0  0
 10 31  1  0  0  0  0
 15 32  1  0  0  0  0
 15 33  1  0  0  0  0
 16 34  1  0  0  0  0
 16 35  1  0  0  0  0
 16 36  1  0  0  0  0
 18 37  1  0  0  0  0
 18 38  1  0  0  0  0
 19 39  1  0  0  0  0
 19 40  1  0  0  0  0
 19 41  1  0  0  0  0
M  END
