 xtb: 6.7.1 (edcfbbe)
          04092505213D

 41 40  0     0  0            999 V2000
    4.5219    1.2319   -1.8263 C   0  0  0  0  0  0  0  0  0  0  0  0
    4.9605    0.5219   -0.5618 C   0  0  0  0  0  0  0  0  0  0  0  0
    3.9362   -0.3390   -0.0328 O   0  0  0  0  0  0  0  0  0  0  0  0
    2.5755    0.2250    0.5624 P   0  0  0  0  0  0  0  0  0  0  0  0
    2.7554    1.8768    1.5930 S   0  0  0  0  0  0  0  0  0  0  0  0
    2.0703   -0.9536    1.4802 O   0  0  0  0  0  0  0  0  0  0  0  0
    1.5776   -2.2521    1.0765 C   0  0  0  0  0  0  0  0  0  0  0  0
    2.5004   -2.9726    0.1193 C   0  0  0  0  0  0  0  0  0  0  0  0
    1.2529    0.3101   -1.1112 S   0  0  0  0  0  0  0  0  0  0  0  0
    0.1360    1.5580   -0.4299 C   0  0  0  0  0  0  0  0  0  0  0  0
   -0.8898    0.9512    0.9420 S   0  0  0  0  0  0  0  0  0  0  0  0
   -2.2111   -0.2948   -0.1532 P   0  0  0  0  0  0  0  0  0  0  0  0
   -1.5979   -1.9863   -0.9106 S   0  0  0  0  0  0  0  0  0  0  0  0
   -2.7323    0.7814   -1.2160 O   0  0  0  0  0  0  0  0  0  0  0  0
   -3.2880    0.3745   -2.4830 C   0  0  0  0  0  0  0  0  0  0  0  0
   -4.6752   -0.2093   -2.3121 C   0  0  0  0  0  0  0  0  0  0  0  0
   -3.3735   -0.5571    0.8902 O   0  0  0  0  0  0  0  0  0  0  0  0
   -4.1117    0.5127    1.5332 C   0  0  0  0  0  0  0  0  0  0  0  0
   -5.5216    0.0202    1.7881 C   0  0  0  0  0  0  0  0  0  0  0  0
    3.7392    1.9528   -1.5955 H   0  0  0  0  0  0  0  0  0  0  0  0
    5.3698    1.7588   -2.2521 H   0  0  0  0  0  0  0  0  0  0  0  0
    4.1400    0.5169   -2.5505 H   0  0  0  0  0  0  0  0  0  0  0  0
    5.2338    1.2474    0.2107 H   0  0  0  0  0  0  0  0  0  0  0  0
    5.7954   -0.1549   -0.7484 H   0  0  0  0  0  0  0  0  0  0  0  0
    1.4798   -2.7851    2.0234 H   0  0  0  0  0  0  0  0  0  0  0  0
    0.5870   -2.1239    0.6294 H   0  0  0  0  0  0  0  0  0  0  0  0
    3.4999   -3.0468    0.5395 H   0  0  0  0  0  0  0  0  0  0  0  0
    2.1051   -3.9677   -0.0612 H   0  0  0  0  0  0  0  0  0  0  0  0
    2.5499   -2.4397   -0.8283 H   0  0  0  0  0  0  0  0  0  0  0  0
   -0.5011    1.9007   -1.2401 H   0  0  0  0  0  0  0  0  0  0  0  0
    0.7253    2.3744   -0.0094 H   0  0  0  0  0  0  0  0  0  0  0  0
   -3.3018    1.2904   -3.0754 H   0  0  0  0  0  0  0  0  0  0  0  0
   -2.6150   -0.3576   -2.9400 H   0  0  0  0  0  0  0  0  0  0  0  0
   -4.6209   -1.1072   -1.6966 H   0  0  0  0  0  0  0  0  0  0  0  0
   -5.3345    0.5114   -1.8349 H   0  0  0  0  0  0  0  0  0  0  0  0
   -5.0772   -0.4738   -3.2850 H   0  0  0  0  0  0  0  0  0  0  0  0
   -3.5956    0.7504    2.4661 H   0  0  0  0  0  0  0  0  0  0  0  0
   -4.1029    1.3910    0.8828 H   0  0  0  0  0  0  0  0  0  0  0  0
   -6.0184   -0.2106    0.8498 H   0  0  0  0  0  0  0  0  0  0  0  0
   -5.4946   -0.8784    2.3976 H   0  0  0  0  0  0  0  0  0  0  0  0
   -6.0787    0.7918    2.3098 H   0  0  0  0  0  0  0  0  0  0  0  0
  1  2  1  0  0  0  0
  2  3  1  0  0  0  0
  3  4  2  0  0  0  0
  4  5  2  0  0  0  0
  4  6  2  0  0  0  0
  6  7  1  0  0  0  0
  7  8  1  0  0  0  0
  4  9  1  0  0  0  0
  9 10  1  0  0  0  0
 10 11  1  0  0  0  0
 11 12  1  0  0  0  0
 12 13  2  0  0  0  0
 12 14  1  0  0  0  0
 14 15  1  0  0  0  0
 15 16  1  0  0  0  0
 12 17  2  0  0  0  0
 17 18  1  0  0  0  0
 18 19  1  0  0  0  0
  1 20  1  0  0  0  0
  1 21  1  0  0  0  0
  1 22  1  0  0  0  0
  2 23  1  0  0  0  0
  2 24  1  0  0  0  0
  7 25  1  0  0  0  0
  7 26  1  0  0  0  0
  8 27  1  0  0  0  0
  8 28  1  0  0  0  0
  8 29  1  0  0  0  0
 10 30  1  0  0  0  0
 10 31  1  0  0  0  0
 15 32  1  0  0  0  0
 15 33  1  0  0  0  0
 16 34  1  0  0  0  0
 16 35  1  0  0  0  0
 16 36  1  0  0  0  0
 18 37  1  0  0  0  0
 18 38  1  0  0  0  0
 19 39  1  0  0  0  0
 19 40  1  0  0  0  0
 19 41  1  0  0  0  0
M  END
