 xtb: 6.7.1 (edcfbbe)
          04092505203D

 41 40  0     0  0            999 V2000
    3.9519   -1.1861   -2.7122 C   0  0  0  0  0  0  0  0  0  0  0  0
    4.2586   -1.5642   -1.2776 C   0  0  0  0  0  0  0  0  0  0  0  0
    3.0639   -1.7018   -0.4888 O   0  0  0  0  0  0  0  0  0  0  0  0
    2.1535   -0.4576   -0.0894 P   0  0  0  0  0  0  0  0  0  0  0  0
    3.1728    1.1573    0.3700 S   0  0  0  0  0  0  0  0  0  0  0  0
    1.2658   -1.1048    1.0524 O   0  0  0  0  0  0  0  0  0  0  0  0
    1.6845   -1.1399    2.4348 C   0  0  0  0  0  0  0  0  0  0  0  0
    0.9351   -0.0936    3.2358 C   0  0  0  0  0  0  0  0  0  0  0  0
    0.7211   -0.3290   -1.6266 S   0  0  0  0  0  0  0  0  0  0  0  0
    0.1790    1.3719   -1.2976 C   0  0  0  0  0  0  0  0  0  0  0  0
   -0.4755    1.6050    0.3731 S   0  0  0  0  0  0  0  0  0  0  0  0
   -2.1923    0.3913    0.1828 P   0  0  0  0  0  0  0  0  0  0  0  0
   -3.0490    0.3003   -1.5826 S   0  0  0  0  0  0  0  0  0  0  0  0
   -3.0995    0.8713    1.3993 O   0  0  0  0  0  0  0  0  0  0  0  0
   -3.4846    2.2292    1.6843 C   0  0  0  0  0  0  0  0  0  0  0  0
   -4.0782    2.9428    0.4875 C   0  0  0  0  0  0  0  0  0  0  0  0
   -1.7183   -1.0069    0.7582 O   0  0  0  0  0  0  0  0  0  0  0  0
   -2.2847   -2.2739    0.3607 C   0  0  0  0  0  0  0  0  0  0  0  0
   -1.3629   -3.0022   -0.5974 C   0  0  0  0  0  0  0  0  0  0  0  0
    3.2308   -1.8781   -3.1399 H   0  0  0  0  0  0  0  0  0  0  0  0
    3.5373   -0.1796   -2.7516 H   0  0  0  0  0  0  0  0  0  0  0  0
    4.8675   -1.2124   -3.2943 H   0  0  0  0  0  0  0  0  0  0  0  0
    4.8966   -0.8084   -0.8081 H   0  0  0  0  0  0  0  0  0  0  0  0
    4.7316   -2.5447   -1.2101 H   0  0  0  0  0  0  0  0  0  0  0  0
    1.4483   -2.1492    2.7760 H   0  0  0  0  0  0  0  0  0  0  0  0
    2.7647   -0.9766    2.4903 H   0  0  0  0  0  0  0  0  0  0  0  0
    1.2154    0.9048    2.9057 H   0  0  0  0  0  0  0  0  0  0  0  0
   -0.1363   -0.2185    3.0961 H   0  0  0  0  0  0  0  0  0  0  0  0
    1.1784   -0.2033    4.2877 H   0  0  0  0  0  0  0  0  0  0  0  0
   -0.5959    1.5895   -2.0325 H   0  0  0  0  0  0  0  0  0  0  0  0
    1.0232    2.0537   -1.3900 H   0  0  0  0  0  0  0  0  0  0  0  0
   -4.2153    2.1237    2.4883 H   0  0  0  0  0  0  0  0  0  0  0  0
   -2.6027    2.7605    2.0529 H   0  0  0  0  0  0  0  0  0  0  0  0
   -4.9072    2.3714    0.0765 H   0  0  0  0  0  0  0  0  0  0  0  0
   -4.4332    3.9218    0.7933 H   0  0  0  0  0  0  0  0  0  0  0  0
   -3.3253    3.0659   -0.2897 H   0  0  0  0  0  0  0  0  0  0  0  0
   -2.4079   -2.8265    1.2936 H   0  0  0  0  0  0  0  0  0  0  0  0
   -3.2627   -2.1032   -0.0983 H   0  0  0  0  0  0  0  0  0  0  0  0
   -0.3583   -3.0522   -0.1842 H   0  0  0  0  0  0  0  0  0  0  0  0
   -1.7382   -4.0077   -0.7578 H   0  0  0  0  0  0  0  0  0  0  0  0
   -1.3216   -2.4805   -1.5513 H   0  0  0  0  0  0  0  0  0  0  0  0
  1  2  1  0  0  0  0
  2  3  1  0  0  0  0
  3  4  2  0  0  0  0
  4  5  2  0  0  0  0
  4  6  2  0  0  0  0
  6  7  1  0  0  0  0
  7  8  1  0  0  0  0
  4  9  1  0  0  0  0
  9 10  1  0  0  0  0
 10 11  1  0  0  0  0
 11 12  1  0  0  0  0
 12 13  2  0  0  0  0
 12 14  2  0  0  0  0
 14 15  1  0  0  0  0
 15 16  1  0  0  0  0
 12 17  2  0  0  0  0
 17 18  1  0  0  0  0
 18 19  1  0  0  0  0
  1 20  1  0  0  0  0
  1 21  1  0  0  0  0
  1 22  1  0  0  0  0
  2 23  1  0  0  0  0
  2 24  1  0  0  0  0
  7 25  1  0  0  0  0
  7 26  1  0  0  0  0
  8 27  1  0  0  0  0
  8 28  1  0  0  0  0
  8 29  1  0  0  0  0
 10 30  1  0  0  0  0
 10 31  1  0  0  0  0
 15 32  1  0  0  0  0
 15 33  1  0  0  0  0
 16 34  1  0  0  0  0
 16 35  1  0  0  0  0
 16 36  1  0  0  0  0
 18 37  1  0  0  0  0
 18 38  1  0  0  0  0
 19 39  1  0  0  0  0
 19 40  1  0  0  0  0
 19 41  1  0  0  0  0
M  END
