 xtb: 6.7.1 (edcfbbe)
          04092507313D

 38 37  0     0  0            999 V2000
    3.0505   -1.9828    1.5736 C   0  0  0  0  0  0  0  0  0  0  0  0
    2.8442   -2.5372    0.1737 C   0  0  0  0  0  0  0  0  0  0  0  0
    2.6678   -1.4630   -0.7712 O   0  0  0  0  0  0  0  0  0  0  0  0
    1.4608   -1.0988   -1.1233 C   0  0  0  0  0  0  0  0  0  0  0  0
    0.4370   -1.6306   -0.7244 O   0  0  0  0  0  0  0  0  0  0  0  0
    1.4750    0.0450   -2.1098 C   0  0  0  0  0  0  0  0  0  0  0  0
    0.3869    1.0629   -1.7845 C   0  0  0  0  0  0  0  0  0  0  0  0
    0.3629    1.8415   -2.5525 H   0  0  0  0  0  0  0  0  0  0  0  0
    0.5526    1.7444   -0.4364 C   0  0  0  0  0  0  0  0  0  0  0  0
   -0.3842    2.2223    0.1695 O   0  0  0  0  0  0  0  0  0  0  0  0
    1.7983    1.7522   -0.0360 O   0  0  0  0  0  0  0  0  0  0  0  0
    2.1059    2.3720    1.2307 C   0  0  0  0  0  0  0  0  0  0  0  0
    2.1997    3.8822    1.0960 C   0  0  0  0  0  0  0  0  0  0  0  0
   -1.3029    0.3505   -1.8383 S   0  0  0  0  0  0  0  0  0  0  0  0
   -1.6048   -0.3158    0.1430 P   0  0  0  0  0  0  0  0  0  0  0  0
   -0.4296   -0.3666    1.7270 S   0  0  0  0  0  0  0  0  0  0  0  0
   -2.8631    0.6488    0.3676 O   0  0  0  0  0  0  0  0  0  0  0  0
   -3.5950    0.6735    1.5948 C   0  0  0  0  0  0  0  0  0  0  0  0
   -2.3958   -1.6960   -0.0457 O   0  0  0  0  0  0  0  0  0  0  0  0
   -1.8701   -3.0030    0.1760 C   0  0  0  0  0  0  0  0  0  0  0  0
    3.2325   -2.8024    2.2605 H   0  0  0  0  0  0  0  0  0  0  0  0
    3.9006   -1.3071    1.5866 H   0  0  0  0  0  0  0  0  0  0  0  0
    2.1633   -1.4424    1.9009 H   0  0  0  0  0  0  0  0  0  0  0  0
    1.9660   -3.1873    0.1373 H   0  0  0  0  0  0  0  0  0  0  0  0
    3.7290   -3.0702   -0.1761 H   0  0  0  0  0  0  0  0  0  0  0  0
    1.2788   -0.3649   -3.1025 H   0  0  0  0  0  0  0  0  0  0  0  0
    2.4573    0.5159   -2.0925 H   0  0  0  0  0  0  0  0  0  0  0  0
    1.3342    2.0849    1.9512 H   0  0  0  0  0  0  0  0  0  0  0  0
    3.0629    1.9329    1.5113 H   0  0  0  0  0  0  0  0  0  0  0  0
    1.2321    4.2947    0.8193 H   0  0  0  0  0  0  0  0  0  0  0  0
    2.5013    4.3043    2.0488 H   0  0  0  0  0  0  0  0  0  0  0  0
    2.9313    4.1462    0.3375 H   0  0  0  0  0  0  0  0  0  0  0  0
   -4.2477   -0.1974    1.6546 H   0  0  0  0  0  0  0  0  0  0  0  0
   -4.1760    1.5919    1.5718 H   0  0  0  0  0  0  0  0  0  0  0  0
   -2.9073    0.6808    2.4436 H   0  0  0  0  0  0  0  0  0  0  0  0
   -1.3856   -3.3608   -0.7301 H   0  0  0  0  0  0  0  0  0  0  0  0
   -2.7242   -3.6253    0.4333 H   0  0  0  0  0  0  0  0  0  0  0  0
   -1.1492   -2.9807    0.9949 H   0  0  0  0  0  0  0  0  0  0  0  0
  1  2  1  0  0  0  0
  2  3  1  0  0  0  0
  3  4  4  0  0  0  0
  4  5  2  0  0  0  0
  4  6  1  0  0  0  0
  6  7  1  0  0  0  0
  7  8  1  0  0  0  0
  7  9  1  0  0  0  0
  9 10  2  0  0  0  0
  9 11  4  0  0  0  0
 11 12  1  0  0  0  0
 12 13  1  0  0  0  0
  7 14  1  0  0  0  0
 14 15  1  0  0  0  0
 15 16  2  0  0  0  0
 15 17  1  0  0  0  0
 17 18  1  0  0  0  0
 15 19  1  0  0  0  0
 19 20  1  0  0  0  0
  1 21  1  0  0  0  0
  1 22  1  0  0  0  0
  1 23  1  0  0  0  0
  2 24  1  0  0  0  0
  2 25  1  0  0  0  0
  6 26  1  0  0  0  0
  6 27  1  0  0  0  0
 12 28  1  0  0  0  0
 12 29  1  0  0  0  0
 13 30  1  0  0  0  0
 13 31  1  0  0  0  0
 13 32  1  0  0  0  0
 18 33  1  0  0  0  0
 18 34  1  0  0  0  0
 18 35  1  0  0  0  0
 20 36  1  0  0  0  0
 20 37  1  0  0  0  0
 20 38  1  0  0  0  0
M  END
