 xtb: 6.7.1 (edcfbbe)
          04092505213D

 41 40  0     0  0            999 V2000
    5.0299   -1.4504    0.0419 C   0  0  0  0  0  0  0  0  0  0  0  0
    4.5837   -0.6936   -1.1909 C   0  0  0  0  0  0  0  0  0  0  0  0
    3.1559   -0.4797   -1.2000 O   0  0  0  0  0  0  0  0  0  0  0  0
    2.4536    0.5033   -0.1744 P   0  0  0  0  0  0  0  0  0  0  0  0
    3.4545    2.0917    0.3760 S   0  0  0  0  0  0  0  0  0  0  0  0
    2.0305   -0.4990    0.9881 O   0  0  0  0  0  0  0  0  0  0  0  0
    1.6412   -0.0535    2.3025 C   0  0  0  0  0  0  0  0  0  0  0  0
    2.7851   -0.2429    3.2789 C   0  0  0  0  0  0  0  0  0  0  0  0
    0.6689    0.8867   -1.2522 S   0  0  0  0  0  0  0  0  0  0  0  0
    0.0266   -0.8208   -1.2861 C   0  0  0  0  0  0  0  0  0  0  0  0
   -0.9764   -1.2098    0.1581 S   0  0  0  0  0  0  0  0  0  0  0  0
   -2.6622   -0.0276   -0.4060 P   0  0  0  0  0  0  0  0  0  0  0  0
   -3.0453    0.0234   -2.3266 S   0  0  0  0  0  0  0  0  0  0  0  0
   -2.4345    1.4483    0.0954 O   0  0  0  0  0  0  0  0  0  0  0  0
   -1.8097    1.8958    1.3207 C   0  0  0  0  0  0  0  0  0  0  0  0
   -2.3014    1.1763    2.5579 C   0  0  0  0  0  0  0  0  0  0  0  0
   -3.8175   -0.5378    0.5534 O   0  0  0  0  0  0  0  0  0  0  0  0
   -4.1786   -1.9147    0.7723 C   0  0  0  0  0  0  0  0  0  0  0  0
   -4.4854   -2.6559   -0.5120 C   0  0  0  0  0  0  0  0  0  0  0  0
    4.4660   -2.3739    0.1424 H   0  0  0  0  0  0  0  0  0  0  0  0
    6.0877   -1.6794   -0.0411 H   0  0  0  0  0  0  0  0  0  0  0  0
    4.8686   -0.8381    0.9274 H   0  0  0  0  0  0  0  0  0  0  0  0
    4.7678   -1.2578   -2.1062 H   0  0  0  0  0  0  0  0  0  0  0  0
    5.0792    0.2806   -1.2479 H   0  0  0  0  0  0  0  0  0  0  0  0
    1.3485    0.9996    2.2591 H   0  0  0  0  0  0  0  0  0  0  0  0
    0.7800   -0.6703    2.5663 H   0  0  0  0  0  0  0  0  0  0  0  0
    3.1196   -1.2761    3.2678 H   0  0  0  0  0  0  0  0  0  0  0  0
    3.6159    0.4060    3.0092 H   0  0  0  0  0  0  0  0  0  0  0  0
    2.4474    0.0152    4.2773 H   0  0  0  0  0  0  0  0  0  0  0  0
    0.8560   -1.5209   -1.3170 H   0  0  0  0  0  0  0  0  0  0  0  0
   -0.5975   -0.8907   -2.1785 H   0  0  0  0  0  0  0  0  0  0  0  0
   -0.7278    1.7823    1.1976 H   0  0  0  0  0  0  0  0  0  0  0  0
   -2.0545    2.9589    1.3503 H   0  0  0  0  0  0  0  0  0  0  0  0
   -3.3832    1.2521    2.6290 H   0  0  0  0  0  0  0  0  0  0  0  0
   -2.0209    0.1255    2.5276 H   0  0  0  0  0  0  0  0  0  0  0  0
   -1.8511    1.6373    3.4319 H   0  0  0  0  0  0  0  0  0  0  0  0
   -3.3599   -2.3997    1.3110 H   0  0  0  0  0  0  0  0  0  0  0  0
   -5.0591   -1.8491    1.4136 H   0  0  0  0  0  0  0  0  0  0  0  0
   -3.5915   -2.7273   -1.1298 H   0  0  0  0  0  0  0  0  0  0  0  0
   -4.8347   -3.6561   -0.2767 H   0  0  0  0  0  0  0  0  0  0  0  0
   -5.2502   -2.1312   -1.0798 H   0  0  0  0  0  0  0  0  0  0  0  0
  1  2  1  0  0  0  0
  2  3  1  0  0  0  0
  3  4  2  0  0  0  0
  4  5  2  0  0  0  0
  4  6  2  0  0  0  0
  6  7  1  0  0  0  0
  7  8  1  0  0  0  0
  4  9  1  0  0  0  0
  9 10  1  0  0  0  0
 10 11  1  0  0  0  0
 11 12  1  0  0  0  0
 12 13  2  0  0  0  0
 12 14  2  0  0  0  0
 14 15  1  0  0  0  0
 15 16  1  0  0  0  0
 12 17  2  0  0  0  0
 17 18  1  0  0  0  0
 18 19  1  0  0  0  0
  1 20  1  0  0  0  0
  1 21  1  0  0  0  0
  1 22  1  0  0  0  0
  2 23  1  0  0  0  0
  2 24  1  0  0  0  0
  7 25  1  0  0  0  0
  7 26  1  0  0  0  0
  8 27  1  0  0  0  0
  8 28  1  0  0  0  0
  8 29  1  0  0  0  0
 10 30  1  0  0  0  0
 10 31  1  0  0  0  0
 15 32  1  0  0  0  0
 15 33  1  0  0  0  0
 16 34  1  0  0  0  0
 16 35  1  0  0  0  0
 16 36  1  0  0  0  0
 18 37  1  0  0  0  0
 18 38  1  0  0  0  0
 19 39  1  0  0  0  0
 19 40  1  0  0  0  0
 19 41  1  0  0  0  0
M  END
