 xtb: 6.7.1 (edcfbbe)
          04092505203D

 41 40  0     0  0            999 V2000
    3.7668   -1.1802   -2.0938 C   0  0  0  0  0  0  0  0  0  0  0  0
    2.6483   -0.2182   -2.4287 C   0  0  0  0  0  0  0  0  0  0  0  0
    2.3812    0.7229   -1.3635 O   0  0  0  0  0  0  0  0  0  0  0  0
    2.0762    0.3908    0.1417 P   0  0  0  0  0  0  0  0  0  0  0  0
    1.1531    1.8380    1.0839 S   0  0  0  0  0  0  0  0  0  0  0  0
    3.5561    0.1486    0.6926 O   0  0  0  0  0  0  0  0  0  0  0  0
    3.9122    0.2388    2.0798 C   0  0  0  0  0  0  0  0  0  0  0  0
    3.3100   -0.8788    2.9081 C   0  0  0  0  0  0  0  0  0  0  0  0
    1.1487   -1.5239    0.2093 S   0  0  0  0  0  0  0  0  0  0  0  0
   -0.1955   -1.1816    1.3865 C   0  0  0  0  0  0  0  0  0  0  0  0
   -1.8581   -1.4551    0.7242 S   0  0  0  0  0  0  0  0  0  0  0  0
   -2.0587    0.2528   -0.5257 P   0  0  0  0  0  0  0  0  0  0  0  0
   -0.7400    0.4886   -1.9556 S   0  0  0  0  0  0  0  0  0  0  0  0
   -2.0721    1.5466    0.3702 O   0  0  0  0  0  0  0  0  0  0  0  0
   -3.0185    1.8420    1.4276 C   0  0  0  0  0  0  0  0  0  0  0  0
   -2.4665    1.4471    2.7835 C   0  0  0  0  0  0  0  0  0  0  0  0
   -3.5789    0.1509   -0.9755 O   0  0  0  0  0  0  0  0  0  0  0  0
   -4.2214   -1.0384   -1.4748 C   0  0  0  0  0  0  0  0  0  0  0  0
   -3.4654   -1.6803   -2.6185 C   0  0  0  0  0  0  0  0  0  0  0  0
    3.4757   -1.8242   -1.2654 H   0  0  0  0  0  0  0  0  0  0  0  0
    3.9728   -1.7963   -2.9635 H   0  0  0  0  0  0  0  0  0  0  0  0
    4.6631   -0.6313   -1.8167 H   0  0  0  0  0  0  0  0  0  0  0  0
    1.7158   -0.7442   -2.6527 H   0  0  0  0  0  0  0  0  0  0  0  0
    2.9049    0.4293   -3.2684 H   0  0  0  0  0  0  0  0  0  0  0  0
    5.0020    0.1890    2.0699 H   0  0  0  0  0  0  0  0  0  0  0  0
    3.5892    1.2146    2.4572 H   0  0  0  0  0  0  0  0  0  0  0  0
    3.7375   -0.8526    3.9053 H   0  0  0  0  0  0  0  0  0  0  0  0
    2.2325   -0.7448    2.9843 H   0  0  0  0  0  0  0  0  0  0  0  0
    3.5182   -1.8428    2.4513 H   0  0  0  0  0  0  0  0  0  0  0  0
   -0.1012   -0.1434    1.7194 H   0  0  0  0  0  0  0  0  0  0  0  0
   -0.1015   -1.8824    2.2122 H   0  0  0  0  0  0  0  0  0  0  0  0
   -3.1516    2.9229    1.3587 H   0  0  0  0  0  0  0  0  0  0  0  0
   -3.9621    1.3383    1.2107 H   0  0  0  0  0  0  0  0  0  0  0  0
   -1.4616    1.8483    2.8991 H   0  0  0  0  0  0  0  0  0  0  0  0
   -3.1048    1.8621    3.5571 H   0  0  0  0  0  0  0  0  0  0  0  0
   -2.4375    0.3658    2.8930 H   0  0  0  0  0  0  0  0  0  0  0  0
   -4.3312   -1.7389   -0.6424 H   0  0  0  0  0  0  0  0  0  0  0  0
   -5.2025   -0.6825   -1.7945 H   0  0  0  0  0  0  0  0  0  0  0  0
   -3.3046   -0.9612   -3.4184 H   0  0  0  0  0  0  0  0  0  0  0  0
   -2.4935   -2.0332   -2.2755 H   0  0  0  0  0  0  0  0  0  0  0  0
   -4.0342   -2.5227   -2.9986 H   0  0  0  0  0  0  0  0  0  0  0  0
  1  2  1  0  0  0  0
  2  3  1  0  0  0  0
  3  4  2  0  0  0  0
  4  5  2  0  0  0  0
  4  6  2  0  0  0  0
  6  7  1  0  0  0  0
  7  8  1  0  0  0  0
  4  9  1  0  0  0  0
  9 10  1  0  0  0  0
 10 11  1  0  0  0  0
 11 12  1  0  0  0  0
 12 13  2  0  0  0  0
 12 14  2  0  0  0  0
 14 15  1  0  0  0  0
 15 16  1  0  0  0  0
 12 17  2  0  0  0  0
 17 18  1  0  0  0  0
 18 19  1  0  0  0  0
  1 20  1  0  0  0  0
  1 21  1  0  0  0  0
  1 22  1  0  0  0  0
  2 23  1  0  0  0  0
  2 24  1  0  0  0  0
  7 25  1  0  0  0  0
  7 26  1  0  0  0  0
  8 27  1  0  0  0  0
  8 28  1  0  0  0  0
  8 29  1  0  0  0  0
 10 30  1  0  0  0  0
 10 31  1  0  0  0  0
 15 32  1  0  0  0  0
 15 33  1  0  0  0  0
 16 34  1  0  0  0  0
 16 35  1  0  0  0  0
 16 36  1  0  0  0  0
 18 37  1  0  0  0  0
 18 38  1  0  0  0  0
 19 39  1  0  0  0  0
 19 40  1  0  0  0  0
 19 41  1  0  0  0  0
M  END
