 xtb: 6.7.1 (edcfbbe)
          04092507313D

 38 37  0     0  0            999 V2000
    3.7934   -3.6287    0.2377 C   0  0  0  0  0  0  0  0  0  0  0  0
    4.0717   -2.6473   -0.8893 C   0  0  0  0  0  0  0  0  0  0  0  0
    2.8430   -2.2026   -1.5020 O   0  0  0  0  0  0  0  0  0  0  0  0
    2.2149   -1.1738   -0.9826 C   0  0  0  0  0  0  0  0  0  0  0  0
    2.6037   -0.5330   -0.0268 O   0  0  0  0  0  0  0  0  0  0  0  0
    0.9179   -0.8802   -1.7025 C   0  0  0  0  0  0  0  0  0  0  0  0
    0.5047    0.5769   -1.5016 C   0  0  0  0  0  0  0  0  0  0  0  0
    0.9831    1.2425   -2.2199 H   0  0  0  0  0  0  0  0  0  0  0  0
    0.7716    1.0755   -0.0959 C   0  0  0  0  0  0  0  0  0  0  0  0
    0.1369    0.6278    0.8482 O   0  0  0  0  0  0  0  0  0  0  0  0
    1.5756    2.0957   -0.0527 O   0  0  0  0  0  0  0  0  0  0  0  0
    1.8463    2.7159    1.2245 C   0  0  0  0  0  0  0  0  0  0  0  0
    3.1019    2.1308    1.8471 C   0  0  0  0  0  0  0  0  0  0  0  0
   -1.2992    0.7758   -1.7137 S   0  0  0  0  0  0  0  0  0  0  0  0
   -2.1173    0.2340    0.1762 P   0  0  0  0  0  0  0  0  0  0  0  0
   -2.4498    1.4620    1.6804 S   0  0  0  0  0  0  0  0  0  0  0  0
   -3.4942   -0.0380   -0.6164 O   0  0  0  0  0  0  0  0  0  0  0  0
   -4.7296   -0.2915    0.0541 C   0  0  0  0  0  0  0  0  0  0  0  0
   -1.7506   -1.2816    0.5653 O   0  0  0  0  0  0  0  0  0  0  0  0
   -1.0760   -1.6742    1.7583 C   0  0  0  0  0  0  0  0  0  0  0  0
    3.2037   -4.4641   -0.1294 H   0  0  0  0  0  0  0  0  0  0  0  0
    4.7346   -4.0002    0.6291 H   0  0  0  0  0  0  0  0  0  0  0  0
    3.2496   -3.1359    1.0408 H   0  0  0  0  0  0  0  0  0  0  0  0
    4.6218   -3.1210   -1.7021 H   0  0  0  0  0  0  0  0  0  0  0  0
    4.6127   -1.7724   -0.5185 H   0  0  0  0  0  0  0  0  0  0  0  0
    0.1612   -1.5442   -1.2727 H   0  0  0  0  0  0  0  0  0  0  0  0
    1.0060   -1.1192   -2.7608 H   0  0  0  0  0  0  0  0  0  0  0  0
    1.9708    3.7734    0.9890 H   0  0  0  0  0  0  0  0  0  0  0  0
    0.9769    2.5701    1.8725 H   0  0  0  0  0  0  0  0  0  0  0  0
    3.2793    2.6045    2.8066 H   0  0  0  0  0  0  0  0  0  0  0  0
    2.9790    1.0602    1.9905 H   0  0  0  0  0  0  0  0  0  0  0  0
    3.9543    2.2977    1.1951 H   0  0  0  0  0  0  0  0  0  0  0  0
   -4.8268    0.3604    0.9256 H   0  0  0  0  0  0  0  0  0  0  0  0
   -4.7742   -1.3347    0.3657 H   0  0  0  0  0  0  0  0  0  0  0  0
   -5.5109   -0.0741   -0.6700 H   0  0  0  0  0  0  0  0  0  0  0  0
   -1.4745   -2.6521    2.0185 H   0  0  0  0  0  0  0  0  0  0  0  0
   -1.2692   -0.9532    2.5544 H   0  0  0  0  0  0  0  0  0  0  0  0
   -0.0027   -1.7254    1.5788 H   0  0  0  0  0  0  0  0  0  0  0  0
  1  2  1  0  0  0  0
  2  3  1  0  0  0  0
  3  4  4  0  0  0  0
  4  5  2  0  0  0  0
  4  6  1  0  0  0  0
  6  7  1  0  0  0  0
  7  8  1  0  0  0  0
  7  9  1  0  0  0  0
  9 10  2  0  0  0  0
  9 11  4  0  0  0  0
 11 12  1  0  0  0  0
 12 13  1  0  0  0  0
  7 14  1  0  0  0  0
 14 15  1  0  0  0  0
 15 16  2  0  0  0  0
 15 17  1  0  0  0  0
 17 18  1  0  0  0  0
 15 19  1  0  0  0  0
 19 20  1  0  0  0  0
  1 21  1  0  0  0  0
  1 22  1  0  0  0  0
  1 23  1  0  0  0  0
  2 24  1  0  0  0  0
  2 25  1  0  0  0  0
  6 26  1  0  0  0  0
  6 27  1  0  0  0  0
 12 28  1  0  0  0  0
 12 29  1  0  0  0  0
 13 30  1  0  0  0  0
 13 31  1  0  0  0  0
 13 32  1  0  0  0  0
 18 33  1  0  0  0  0
 18 34  1  0  0  0  0
 18 35  1  0  0  0  0
 20 36  1  0  0  0  0
 20 37  1  0  0  0  0
 20 38  1  0  0  0  0
M  END
