 xtb: 6.7.1 (edcfbbe)
          04092507313D

 38 37  0     0  0            999 V2000
    4.7620   -4.3871   -0.9400 C   0  0  0  0  0  0  0  0  0  0  0  0
    3.7784   -3.4487   -1.6105 C   0  0  0  0  0  0  0  0  0  0  0  0
    3.4198   -2.4270   -0.6591 O   0  0  0  0  0  0  0  0  0  0  0  0
    2.5412   -1.5213   -1.0307 C   0  0  0  0  0  0  0  0  0  0  0  0
    2.0134   -1.4884   -2.1209 O   0  0  0  0  0  0  0  0  0  0  0  0
    2.2882   -0.5104    0.0724 C   0  0  0  0  0  0  0  0  0  0  0  0
    0.8906    0.0735   -0.0636 C   0  0  0  0  0  0  0  0  0  0  0  0
    0.7015    0.3083   -1.1198 H   0  0  0  0  0  0  0  0  0  0  0  0
    0.6579    1.3353    0.7377 C   0  0  0  0  0  0  0  0  0  0  0  0
   -0.3879    1.5238    1.3324 O   0  0  0  0  0  0  0  0  0  0  0  0
    1.6557    2.1663    0.6929 O   0  0  0  0  0  0  0  0  0  0  0  0
    1.4946    3.4669    1.3072 C   0  0  0  0  0  0  0  0  0  0  0  0
    0.8193    4.4267    0.3422 C   0  0  0  0  0  0  0  0  0  0  0  0
   -0.3795   -1.1413    0.4616 S   0  0  0  0  0  0  0  0  0  0  0  0
   -2.0848    0.0708    0.1939 P   0  0  0  0  0  0  0  0  0  0  0  0
   -2.1221    1.5736   -1.0787 S   0  0  0  0  0  0  0  0  0  0  0  0
   -2.9343   -1.1807   -0.3475 O   0  0  0  0  0  0  0  0  0  0  0  0
   -4.3002   -1.0330   -0.7467 C   0  0  0  0  0  0  0  0  0  0  0  0
   -2.8687    0.3029    1.5657 O   0  0  0  0  0  0  0  0  0  0  0  0
   -2.9714    1.5304    2.2882 C   0  0  0  0  0  0  0  0  0  0  0  0
    5.0481   -5.1661   -1.6387 H   0  0  0  0  0  0  0  0  0  0  0  0
    5.6469   -3.8395   -0.6305 H   0  0  0  0  0  0  0  0  0  0  0  0
    4.3056   -4.8400   -0.0651 H   0  0  0  0  0  0  0  0  0  0  0  0
    2.8647   -3.9656   -1.9197 H   0  0  0  0  0  0  0  0  0  0  0  0
    4.2121   -2.9631   -2.4902 H   0  0  0  0  0  0  0  0  0  0  0  0
    3.0203    0.2939   -0.0316 H   0  0  0  0  0  0  0  0  0  0  0  0
    2.4250   -0.9964    1.0373 H   0  0  0  0  0  0  0  0  0  0  0  0
    0.9065    3.3516    2.2207 H   0  0  0  0  0  0  0  0  0  0  0  0
    2.5116    3.7810    1.5398 H   0  0  0  0  0  0  0  0  0  0  0  0
    1.4098    4.5280   -0.5640 H   0  0  0  0  0  0  0  0  0  0  0  0
   -0.1689    4.0585    0.0714 H   0  0  0  0  0  0  0  0  0  0  0  0
    0.7159    5.3982    0.8134 H   0  0  0  0  0  0  0  0  0  0  0  0
   -4.9359   -0.9215    0.1310 H   0  0  0  0  0  0  0  0  0  0  0  0
   -4.5482   -1.9428   -1.2877 H   0  0  0  0  0  0  0  0  0  0  0  0
   -4.4085   -0.1623   -1.3971 H   0  0  0  0  0  0  0  0  0  0  0  0
   -3.9568    1.5212    2.7491 H   0  0  0  0  0  0  0  0  0  0  0  0
   -2.8742    2.3763    1.6066 H   0  0  0  0  0  0  0  0  0  0  0  0
   -2.1891    1.5735    3.0424 H   0  0  0  0  0  0  0  0  0  0  0  0
  1  2  1  0  0  0  0
  2  3  1  0  0  0  0
  3  4  1  0  0  0  0
  4  5  2  0  0  0  0
  4  6  1  0  0  0  0
  6  7  1  0  0  0  0
  7  8  1  0  0  0  0
  7  9  1  0  0  0  0
  9 10  2  0  0  0  0
  9 11  4  0  0  0  0
 11 12  1  0  0  0  0
 12 13  1  0  0  0  0
  7 14  1  0  0  0  0
 14 15  1  0  0  0  0
 15 16  2  0  0  0  0
 15 17  1  0  0  0  0
 17 18  1  0  0  0  0
 15 19  2  0  0  0  0
 19 20  1  0  0  0  0
  1 21  1  0  0  0  0
  1 22  1  0  0  0  0
  1 23  1  0  0  0  0
  2 24  1  0  0  0  0
  2 25  1  0  0  0  0
  6 26  1  0  0  0  0
  6 27  1  0  0  0  0
 12 28  1  0  0  0  0
 12 29  1  0  0  0  0
 13 30  1  0  0  0  0
 13 31  1  0  0  0  0
 13 32  1  0  0  0  0
 18 33  1  0  0  0  0
 18 34  1  0  0  0  0
 18 35  1  0  0  0  0
 20 36  1  0  0  0  0
 20 37  1  0  0  0  0
 20 38  1  0  0  0  0
M  END
