 xtb: 6.7.1 (edcfbbe)
          04032520393D

 22 22  0     0  0            999 V2000
    2.8095   -0.0000    0.0067 C   0  0  0  0  0  0  0  0  0  0  0  0
    1.3962   -0.0000   -0.3071 N   0  0  0  0  0  0  0  0  0  0  0  0
    0.7324    1.1833    0.2105 C   0  0  0  0  0  0  0  0  0  0  0  0
   -0.7324    1.1834   -0.2105 C   0  0  0  0  0  0  0  0  0  0  0  0
   -1.3962    0.0000    0.3071 N   0  0  0  0  0  0  0  0  0  0  0  0
   -0.7324   -1.1833   -0.2105 C   0  0  0  0  0  0  0  0  0  0  0  0
    0.7324   -1.1833    0.2105 C   0  0  0  0  0  0  0  0  0  0  0  0
   -2.8095   -0.0000   -0.0068 C   0  0  0  0  0  0  0  0  0  0  0  0
    3.2686   -0.8854   -0.4292 H   0  0  0  0  0  0  0  0  0  0  0  0
    3.0019    0.0002    1.0914 H   0  0  0  0  0  0  0  0  0  0  0  0
    3.2687    0.8852   -0.4295 H   0  0  0  0  0  0  0  0  0  0  0  0
    0.7885    1.2227    1.3134 H   0  0  0  0  0  0  0  0  0  0  0  0
    1.2287    2.0669   -0.1963 H   0  0  0  0  0  0  0  0  0  0  0  0
   -1.2286    2.0670    0.1964 H   0  0  0  0  0  0  0  0  0  0  0  0
   -0.7885    1.2228   -1.3133 H   0  0  0  0  0  0  0  0  0  0  0  0
   -1.2287   -2.0669    0.1965 H   0  0  0  0  0  0  0  0  0  0  0  0
   -0.7886   -1.2228   -1.3133 H   0  0  0  0  0  0  0  0  0  0  0  0
    0.7886   -1.2228    1.3134 H   0  0  0  0  0  0  0  0  0  0  0  0
    1.2286   -2.0670   -0.1964 H   0  0  0  0  0  0  0  0  0  0  0  0
   -3.2687    0.8852    0.4293 H   0  0  0  0  0  0  0  0  0  0  0  0
   -3.2687   -0.8853    0.4292 H   0  0  0  0  0  0  0  0  0  0  0  0
   -3.0019   -0.0000   -1.0914 H   0  0  0  0  0  0  0  0  0  0  0  0
  1  2  1  0  0  0  0
  2  3  1  0  0  0  0
  3  4  1  0  0  0  0
  4  5  1  0  0  0  0
  5  6  1  0  0  0  0
  2  7  1  0  0  0  0
  6  7  1  0  0  0  0
  5  8  1  0  0  0  0
  1  9  1  0  0  0  0
  1 10  1  0  0  0  0
  1 11  1  0  0  0  0
  3 12  1  0  0  0  0
  3 13  1  0  0  0  0
  4 14  1  0  0  0  0
  4 15  1  0  0  0  0
  6 16  1  0  0  0  0
  6 17  1  0  0  0  0
  7 18  1  0  0  0  0
  7 19  1  0  0  0  0
  8 20  1  0  0  0  0
  8 21  1  0  0  0  0
  8 22  1  0  0  0  0
M  END
