 xtb: 6.7.1 (edcfbbe)
          04092505203D

 41 40  0     0  0            999 V2000
    4.6875   -1.0559   -1.3755 C   0  0  0  0  0  0  0  0  0  0  0  0
    4.4500   -0.9408    0.1161 C   0  0  0  0  0  0  0  0  0  0  0  0
    3.5248    0.1049    0.4622 O   0  0  0  0  0  0  0  0  0  0  0  0
    2.0643    0.3014   -0.1373 P   0  0  0  0  0  0  0  0  0  0  0  0
    1.9381    1.0393   -1.9536 S   0  0  0  0  0  0  0  0  0  0  0  0
    1.4338    1.2052    1.0062 O   0  0  0  0  0  0  0  0  0  0  0  0
    1.4355    2.6436    0.9191 C   0  0  0  0  0  0  0  0  0  0  0  0
    2.8340    3.2069    1.0449 C   0  0  0  0  0  0  0  0  0  0  0  0
    1.1758   -1.5852    0.2035 S   0  0  0  0  0  0  0  0  0  0  0  0
    0.0904   -1.7062   -1.2595 C   0  0  0  0  0  0  0  0  0  0  0  0
   -1.6242   -2.1064   -0.8421 S   0  0  0  0  0  0  0  0  0  0  0  0
   -2.1121   -0.3585    0.2210 P   0  0  0  0  0  0  0  0  0  0  0  0
   -1.4480    1.3534   -0.4850 S   0  0  0  0  0  0  0  0  0  0  0  0
   -1.6102   -0.7893    1.6590 O   0  0  0  0  0  0  0  0  0  0  0  0
   -1.3674    0.1331    2.7393 C   0  0  0  0  0  0  0  0  0  0  0  0
   -2.6106    0.9081    3.1208 C   0  0  0  0  0  0  0  0  0  0  0  0
   -3.6891   -0.4331    0.3913 O   0  0  0  0  0  0  0  0  0  0  0  0
   -4.6023    0.1343   -0.5632 C   0  0  0  0  0  0  0  0  0  0  0  0
   -4.5826   -0.6081   -1.8837 C   0  0  0  0  0  0  0  0  0  0  0  0
    3.7718   -1.3585   -1.8812 H   0  0  0  0  0  0  0  0  0  0  0  0
    5.0043   -0.1000   -1.7857 H   0  0  0  0  0  0  0  0  0  0  0  0
    5.4567   -1.7989   -1.5602 H   0  0  0  0  0  0  0  0  0  0  0  0
    5.3626   -0.6574    0.6436 H   0  0  0  0  0  0  0  0  0  0  0  0
    4.0658   -1.8815    0.5203 H   0  0  0  0  0  0  0  0  0  0  0  0
    0.9758    2.9345   -0.0318 H   0  0  0  0  0  0  0  0  0  0  0  0
    0.7918    2.9615    1.7407 H   0  0  0  0  0  0  0  0  0  0  0  0
    3.4370    2.8810    0.1981 H   0  0  0  0  0  0  0  0  0  0  0  0
    2.7858    4.2912    1.0502 H   0  0  0  0  0  0  0  0  0  0  0  0
    3.2981    2.8557    1.9627 H   0  0  0  0  0  0  0  0  0  0  0  0
    0.4401   -2.5295   -1.8771 H   0  0  0  0  0  0  0  0  0  0  0  0
    0.1385   -0.7587   -1.8045 H   0  0  0  0  0  0  0  0  0  0  0  0
   -1.0233   -0.5102    3.5506 H   0  0  0  0  0  0  0  0  0  0  0  0
   -0.5600    0.8078    2.4387 H   0  0  0  0  0  0  0  0  0  0  0  0
   -3.4256    0.2232    3.3403 H   0  0  0  0  0  0  0  0  0  0  0  0
   -2.4022    1.5167    3.9953 H   0  0  0  0  0  0  0  0  0  0  0  0
   -2.9086    1.5585    2.2986 H   0  0  0  0  0  0  0  0  0  0  0  0
   -5.5734    0.0584   -0.0723 H   0  0  0  0  0  0  0  0  0  0  0  0
   -4.3393    1.1869   -0.7102 H   0  0  0  0  0  0  0  0  0  0  0  0
   -4.7266   -1.6731   -1.7202 H   0  0  0  0  0  0  0  0  0  0  0  0
   -5.3749   -0.2289   -2.5212 H   0  0  0  0  0  0  0  0  0  0  0  0
   -3.6261   -0.4571   -2.3827 H   0  0  0  0  0  0  0  0  0  0  0  0
  1  2  1  0  0  0  0
  2  3  1  0  0  0  0
  3  4  2  0  0  0  0
  4  5  2  0  0  0  0
  4  6  2  0  0  0  0
  6  7  1  0  0  0  0
  7  8  1  0  0  0  0
  4  9  1  0  0  0  0
  9 10  1  0  0  0  0
 10 11  1  0  0  0  0
 11 12  1  0  0  0  0
 12 13  2  0  0  0  0
 12 14  2  0  0  0  0
 14 15  1  0  0  0  0
 15 16  1  0  0  0  0
 12 17  2  0  0  0  0
 17 18  1  0  0  0  0
 18 19  1  0  0  0  0
  1 20  1  0  0  0  0
  1 21  1  0  0  0  0
  1 22  1  0  0  0  0
  2 23  1  0  0  0  0
  2 24  1  0  0  0  0
  7 25  1  0  0  0  0
  7 26  1  0  0  0  0
  8 27  1  0  0  0  0
  8 28  1  0  0  0  0
  8 29  1  0  0  0  0
 10 30  1  0  0  0  0
 10 31  1  0  0  0  0
 15 32  1  0  0  0  0
 15 33  1  0  0  0  0
 16 34  1  0  0  0  0
 16 35  1  0  0  0  0
 16 36  1  0  0  0  0
 18 37  1  0  0  0  0
 18 38  1  0  0  0  0
 19 39  1  0  0  0  0
 19 40  1  0  0  0  0
 19 41  1  0  0  0  0
M  END
