 xtb: 6.7.1 (edcfbbe)
          04092505213D

 41 40  0     0  0            999 V2000
    5.4855   -1.5270   -1.5309 C   0  0  0  0  0  0  0  0  0  0  0  0
    4.8925   -0.2618   -0.9444 C   0  0  0  0  0  0  0  0  0  0  0  0
    3.6773   -0.6070   -0.2408 O   0  0  0  0  0  0  0  0  0  0  0  0
    2.3507    0.2436   -0.3753 P   0  0  0  0  0  0  0  0  0  0  0  0
    1.9041    0.7963   -2.2073 S   0  0  0  0  0  0  0  0  0  0  0  0
    2.6659    1.4391    0.6269 O   0  0  0  0  0  0  0  0  0  0  0  0
    1.8455    2.6095    0.7864 C   0  0  0  0  0  0  0  0  0  0  0  0
    0.9810    2.4922    2.0258 C   0  0  0  0  0  0  0  0  0  0  0  0
    1.0578   -1.0687    0.6327 S   0  0  0  0  0  0  0  0  0  0  0  0
    0.0739   -1.6520   -0.7979 C   0  0  0  0  0  0  0  0  0  0  0  0
   -1.6324   -1.9788   -0.3374 S   0  0  0  0  0  0  0  0  0  0  0  0
   -2.1569   -0.0010    0.2809 P   0  0  0  0  0  0  0  0  0  0  0  0
   -1.3489    1.4786   -0.7142 S   0  0  0  0  0  0  0  0  0  0  0  0
   -1.7605    0.1218    1.8008 O   0  0  0  0  0  0  0  0  0  0  0  0
   -2.2077   -0.8014    2.8249 C   0  0  0  0  0  0  0  0  0  0  0  0
   -3.3573   -0.2029    3.6092 C   0  0  0  0  0  0  0  0  0  0  0  0
   -3.7411   -0.0787    0.3566 O   0  0  0  0  0  0  0  0  0  0  0  0
   -4.6017   -0.5762   -0.6856 C   0  0  0  0  0  0  0  0  0  0  0  0
   -4.3553    0.0945   -2.0205 C   0  0  0  0  0  0  0  0  0  0  0  0
    5.6457   -2.2590   -0.7447 H   0  0  0  0  0  0  0  0  0  0  0  0
    4.8105   -1.9464   -2.2723 H   0  0  0  0  0  0  0  0  0  0  0  0
    6.4331   -1.2906   -2.0039 H   0  0  0  0  0  0  0  0  0  0  0  0
    4.6543    0.4647   -1.7283 H   0  0  0  0  0  0  0  0  0  0  0  0
    5.5627    0.1975   -0.2153 H   0  0  0  0  0  0  0  0  0  0  0  0
    2.5536    3.4356    0.8750 H   0  0  0  0  0  0  0  0  0  0  0  0
    1.2338    2.7491   -0.1113 H   0  0  0  0  0  0  0  0  0  0  0  0
    0.4647    3.4331    2.1868 H   0  0  0  0  0  0  0  0  0  0  0  0
    0.2386    1.7062    1.9001 H   0  0  0  0  0  0  0  0  0  0  0  0
    1.5986    2.2618    2.8892 H   0  0  0  0  0  0  0  0  0  0  0  0
    0.4803   -2.5945   -1.1563 H   0  0  0  0  0  0  0  0  0  0  0  0
    0.1102   -0.8813   -1.5736 H   0  0  0  0  0  0  0  0  0  0  0  0
   -2.4952   -1.7449    2.3531 H   0  0  0  0  0  0  0  0  0  0  0  0
   -1.3300   -0.9599    3.4544 H   0  0  0  0  0  0  0  0  0  0  0  0
   -3.0577    0.7471    4.0429 H   0  0  0  0  0  0  0  0  0  0  0  0
   -4.2104   -0.0354    2.9570 H   0  0  0  0  0  0  0  0  0  0  0  0
   -3.6398   -0.8872    4.4029 H   0  0  0  0  0  0  0  0  0  0  0  0
   -4.4523   -1.6565   -0.7624 H   0  0  0  0  0  0  0  0  0  0  0  0
   -5.6055   -0.3636   -0.3136 H   0  0  0  0  0  0  0  0  0  0  0  0
   -4.4393    1.1747   -1.9252 H   0  0  0  0  0  0  0  0  0  0  0  0
   -3.3543   -0.1398   -2.3810 H   0  0  0  0  0  0  0  0  0  0  0  0
   -5.0823   -0.2605   -2.7437 H   0  0  0  0  0  0  0  0  0  0  0  0
  1  2  1  0  0  0  0
  2  3  1  0  0  0  0
  3  4  2  0  0  0  0
  4  5  2  0  0  0  0
  4  6  2  0  0  0  0
  6  7  1  0  0  0  0
  7  8  1  0  0  0  0
  4  9  1  0  0  0  0
  9 10  1  0  0  0  0
 10 11  1  0  0  0  0
 11 12  1  0  0  0  0
 12 13  2  0  0  0  0
 12 14  2  0  0  0  0
 14 15  1  0  0  0  0
 15 16  1  0  0  0  0
 12 17  2  0  0  0  0
 17 18  1  0  0  0  0
 18 19  1  0  0  0  0
  1 20  1  0  0  0  0
  1 21  1  0  0  0  0
  1 22  1  0  0  0  0
  2 23  1  0  0  0  0
  2 24  1  0  0  0  0
  7 25  1  0  0  0  0
  7 26  1  0  0  0  0
  8 27  1  0  0  0  0
  8 28  1  0  0  0  0
  8 29  1  0  0  0  0
 10 30  1  0  0  0  0
 10 31  1  0  0  0  0
 15 32  1  0  0  0  0
 15 33  1  0  0  0  0
 16 34  1  0  0  0  0
 16 35  1  0  0  0  0
 16 36  1  0  0  0  0
 18 37  1  0  0  0  0
 18 38  1  0  0  0  0
 19 39  1  0  0  0  0
 19 40  1  0  0  0  0
 19 41  1  0  0  0  0
M  END
