 xtb: 6.7.1 (edcfbbe)
          04032520153D

  8  7  0     0  0            999 V2000
   -1.4514    0.0535   -0.0006 C   0  0  0  0  0  0  0  0  0  0  0  0
    0.0381   -0.0873   -0.0029 C   0  0  0  0  0  0  0  0  0  0  0  0
    0.6413   -1.1404    0.0006 O   0  0  0  0  0  0  0  0  0  0  0  0
    0.6585    1.0838   -0.0000 O   0  0  0  0  0  0  0  0  0  0  0  0
   -1.7589    0.4849    0.9490 H   0  0  0  0  0  0  0  0  0  0  0  0
   -1.7487    0.7363   -0.7914 H   0  0  0  0  0  0  0  0  0  0  0  0
   -1.9156   -0.9177   -0.1336 H   0  0  0  0  0  0  0  0  0  0  0  0
    1.6308    0.9970    0.0088 H   0  0  0  0  0  0  0  0  0  0  0  0
  1  2  1  0  0  0  0
  2  3  2  0  0  0  0
  2  4  1  0  0  0  0
  1  5  1  0  0  0  0
  1  6  1  0  0  0  0
  1  7  1  0  0  0  0
  4  8  1  0  0  0  0
M  END
