 xtb: 6.7.1 (edcfbbe)
          04092507313D

 38 37  0     0  0            999 V2000
    4.1927   -1.7865    1.2446 C   0  0  0  0  0  0  0  0  0  0  0  0
    2.7941   -2.0101    0.7062 C   0  0  0  0  0  0  0  0  0  0  0  0
    2.5848   -1.0913   -0.3843 O   0  0  0  0  0  0  0  0  0  0  0  0
    1.4109   -1.0665   -0.9609 C   0  0  0  0  0  0  0  0  0  0  0  0
    0.4767   -1.7859   -0.6482 O   0  0  0  0  0  0  0  0  0  0  0  0
    1.3222   -0.0389   -2.0657 C   0  0  0  0  0  0  0  0  0  0  0  0
    0.1726    0.9290   -1.7962 C   0  0  0  0  0  0  0  0  0  0  0  0
    0.0579    1.6120   -2.6442 H   0  0  0  0  0  0  0  0  0  0  0  0
    0.3408    1.7750   -0.5424 C   0  0  0  0  0  0  0  0  0  0  0  0
   -0.5969    2.3244   -0.0014 O   0  0  0  0  0  0  0  0  0  0  0  0
    1.5884    1.8623   -0.1678 O   0  0  0  0  0  0  0  0  0  0  0  0
    1.8930    2.6180    1.0224 C   0  0  0  0  0  0  0  0  0  0  0  0
    3.3910    2.8427    1.0570 C   0  0  0  0  0  0  0  0  0  0  0  0
   -1.4618    0.1142   -1.7070 S   0  0  0  0  0  0  0  0  0  0  0  0
   -1.6430   -0.5177    0.3224 P   0  0  0  0  0  0  0  0  0  0  0  0
   -0.3547   -0.1982    1.7634 S   0  0  0  0  0  0  0  0  0  0  0  0
   -3.0911    0.0960    0.6800 O   0  0  0  0  0  0  0  0  0  0  0  0
   -3.3344    1.4733    0.9583 C   0  0  0  0  0  0  0  0  0  0  0  0
   -2.0557   -2.0409    0.2803 O   0  0  0  0  0  0  0  0  0  0  0  0
   -2.9862   -2.5838   -0.6730 C   0  0  0  0  0  0  0  0  0  0  0  0
    4.9221   -1.9227    0.4520 H   0  0  0  0  0  0  0  0  0  0  0  0
    4.2821   -0.7799    1.6414 H   0  0  0  0  0  0  0  0  0  0  0  0
    4.3860   -2.4988    2.0395 H   0  0  0  0  0  0  0  0  0  0  0  0
    2.0274   -1.8233    1.4654 H   0  0  0  0  0  0  0  0  0  0  0  0
    2.6606   -3.0274    0.3251 H   0  0  0  0  0  0  0  0  0  0  0  0
    1.1234   -0.5598   -3.0036 H   0  0  0  0  0  0  0  0  0  0  0  0
    2.2631    0.5061   -2.1236 H   0  0  0  0  0  0  0  0  0  0  0  0
    1.3315    3.5564    0.9899 H   0  0  0  0  0  0  0  0  0  0  0  0
    1.5438    2.0329    1.8799 H   0  0  0  0  0  0  0  0  0  0  0  0
    3.7021    3.4387    0.2043 H   0  0  0  0  0  0  0  0  0  0  0  0
    3.6517    3.3620    1.9728 H   0  0  0  0  0  0  0  0  0  0  0  0
    3.9063    1.8875    1.0266 H   0  0  0  0  0  0  0  0  0  0  0  0
   -3.2454    2.0626    0.0459 H   0  0  0  0  0  0  0  0  0  0  0  0
   -2.6182    1.8436    1.6930 H   0  0  0  0  0  0  0  0  0  0  0  0
   -4.3466    1.5157    1.3525 H   0  0  0  0  0  0  0  0  0  0  0  0
   -3.1186   -3.6206   -0.3748 H   0  0  0  0  0  0  0  0  0  0  0  0
   -2.5623   -2.5236   -1.6752 H   0  0  0  0  0  0  0  0  0  0  0  0
   -3.9299   -2.0424   -0.6277 H   0  0  0  0  0  0  0  0  0  0  0  0
  1  2  1  0  0  0  0
  2  3  1  0  0  0  0
  3  4  4  0  0  0  0
  4  5  2  0  0  0  0
  4  6  1  0  0  0  0
  6  7  1  0  0  0  0
  7  8  1  0  0  0  0
  7  9  1  0  0  0  0
  9 10  2  0  0  0  0
  9 11  4  0  0  0  0
 11 12  1  0  0  0  0
 12 13  1  0  0  0  0
  7 14  1  0  0  0  0
 14 15  1  0  0  0  0
 15 16  2  0  0  0  0
 15 17  1  0  0  0  0
 17 18  1  0  0  0  0
 15 19  2  0  0  0  0
 19 20  1  0  0  0  0
  1 21  1  0  0  0  0
  1 22  1  0  0  0  0
  1 23  1  0  0  0  0
  2 24  1  0  0  0  0
  2 25  1  0  0  0  0
  6 26  1  0  0  0  0
  6 27  1  0  0  0  0
 12 28  1  0  0  0  0
 12 29  1  0  0  0  0
 13 30  1  0  0  0  0
 13 31  1  0  0  0  0
 13 32  1  0  0  0  0
 18 33  1  0  0  0  0
 18 34  1  0  0  0  0
 18 35  1  0  0  0  0
 20 36  1  0  0  0  0
 20 37  1  0  0  0  0
 20 38  1  0  0  0  0
M  END
