 xtb: 6.7.1 (edcfbbe)
          04092505213D

 41 40  0     0  0            999 V2000
    3.8919    3.0082   -0.8720 C   0  0  0  0  0  0  0  0  0  0  0  0
    2.6563    2.1910   -0.5556 C   0  0  0  0  0  0  0  0  0  0  0  0
    3.0833    0.9543    0.0479 O   0  0  0  0  0  0  0  0  0  0  0  0
    2.0646    0.0456    0.8645 P   0  0  0  0  0  0  0  0  0  0  0  0
    1.0579    0.9899    2.2481 S   0  0  0  0  0  0  0  0  0  0  0  0
    2.9975   -1.0577    1.4876 O   0  0  0  0  0  0  0  0  0  0  0  0
    4.0325   -1.7694    0.7562 C   0  0  0  0  0  0  0  0  0  0  0  0
    3.5915   -3.1848    0.4401 C   0  0  0  0  0  0  0  0  0  0  0  0
    1.0236   -0.9000   -0.7496 S   0  0  0  0  0  0  0  0  0  0  0  0
   -0.0553   -2.0131    0.1834 C   0  0  0  0  0  0  0  0  0  0  0  0
   -1.3839   -1.1719    1.1018 S   0  0  0  0  0  0  0  0  0  0  0  0
   -2.0924    0.0241   -0.4860 P   0  0  0  0  0  0  0  0  0  0  0  0
   -2.1881   -0.8499   -2.2432 S   0  0  0  0  0  0  0  0  0  0  0  0
   -1.1368    1.2805   -0.3166 O   0  0  0  0  0  0  0  0  0  0  0  0
   -1.4358    2.6087   -0.7958 C   0  0  0  0  0  0  0  0  0  0  0  0
   -1.3472    2.7005   -2.3056 C   0  0  0  0  0  0  0  0  0  0  0  0
   -3.4782    0.6106    0.0230 O   0  0  0  0  0  0  0  0  0  0  0  0
   -4.7284   -0.0541   -0.2339 C   0  0  0  0  0  0  0  0  0  0  0  0
   -4.8655   -1.3308    0.5692 C   0  0  0  0  0  0  0  0  0  0  0  0
    4.4440    3.2141    0.0405 H   0  0  0  0  0  0  0  0  0  0  0  0
    4.5334    2.4623   -1.5574 H   0  0  0  0  0  0  0  0  0  0  0  0
    3.5916    3.9452   -1.3292 H   0  0  0  0  0  0  0  0  0  0  0  0
    2.0914    1.9504   -1.4607 H   0  0  0  0  0  0  0  0  0  0  0  0
    1.9993    2.7106    0.1501 H   0  0  0  0  0  0  0  0  0  0  0  0
    4.2753   -1.2139   -0.1504 H   0  0  0  0  0  0  0  0  0  0  0  0
    4.8886   -1.7640    1.4324 H   0  0  0  0  0  0  0  0  0  0  0  0
    4.4347   -3.7301    0.0280 H   0  0  0  0  0  0  0  0  0  0  0  0
    3.2567   -3.6827    1.3462 H   0  0  0  0  0  0  0  0  0  0  0  0
    2.7846   -3.1849   -0.2885 H   0  0  0  0  0  0  0  0  0  0  0  0
    0.5193   -2.5666    0.9232 H   0  0  0  0  0  0  0  0  0  0  0  0
   -0.4967   -2.6788   -0.5573 H   0  0  0  0  0  0  0  0  0  0  0  0
   -2.4286    2.8912   -0.4389 H   0  0  0  0  0  0  0  0  0  0  0  0
   -0.6816    3.2293   -0.3074 H   0  0  0  0  0  0  0  0  0  0  0  0
   -2.1167    2.0838   -2.7668 H   0  0  0  0  0  0  0  0  0  0  0  0
   -1.4872    3.7325   -2.6110 H   0  0  0  0  0  0  0  0  0  0  0  0
   -0.3766    2.3508   -2.6496 H   0  0  0  0  0  0  0  0  0  0  0  0
   -5.4806    0.6839    0.0477 H   0  0  0  0  0  0  0  0  0  0  0  0
   -4.7923   -0.2655   -1.3063 H   0  0  0  0  0  0  0  0  0  0  0  0
   -5.8647   -1.7332    0.4372 H   0  0  0  0  0  0  0  0  0  0  0  0
   -4.1391   -2.0655    0.2248 H   0  0  0  0  0  0  0  0  0  0  0  0
   -4.6899   -1.1345    1.6241 H   0  0  0  0  0  0  0  0  0  0  0  0
  1  2  1  0  0  0  0
  2  3  1  0  0  0  0
  3  4  2  0  0  0  0
  4  5  2  0  0  0  0
  4  6  2  0  0  0  0
  6  7  1  0  0  0  0
  7  8  1  0  0  0  0
  4  9  1  0  0  0  0
  9 10  1  0  0  0  0
 10 11  1  0  0  0  0
 11 12  1  0  0  0  0
 12 13  2  0  0  0  0
 12 14  2  0  0  0  0
 14 15  1  0  0  0  0
 15 16  1  0  0  0  0
 12 17  2  0  0  0  0
 17 18  1  0  0  0  0
 18 19  1  0  0  0  0
  1 20  1  0  0  0  0
  1 21  1  0  0  0  0
  1 22  1  0  0  0  0
  2 23  1  0  0  0  0
  2 24  1  0  0  0  0
  7 25  1  0  0  0  0
  7 26  1  0  0  0  0
  8 27  1  0  0  0  0
  8 28  1  0  0  0  0
  8 29  1  0  0  0  0
 10 30  1  0  0  0  0
 10 31  1  0  0  0  0
 15 32  1  0  0  0  0
 15 33  1  0  0  0  0
 16 34  1  0  0  0  0
 16 35  1  0  0  0  0
 16 36  1  0  0  0  0
 18 37  1  0  0  0  0
 18 38  1  0  0  0  0
 19 39  1  0  0  0  0
 19 40  1  0  0  0  0
 19 41  1  0  0  0  0
M  END
