 xtb: 6.7.1 (edcfbbe)
          04092505213D

 41 40  0     0  0            999 V2000
    2.6293    1.6339   -1.7871 C   0  0  0  0  0  0  0  0  0  0  0  0
    3.0860    0.2357   -1.4236 C   0  0  0  0  0  0  0  0  0  0  0  0
    3.4773    0.1382   -0.0451 O   0  0  0  0  0  0  0  0  0  0  0  0
    2.4875    0.0400    1.1991 P   0  0  0  0  0  0  0  0  0  0  0  0
    1.4064    1.6042    1.6633 S   0  0  0  0  0  0  0  0  0  0  0  0
    3.4995   -0.2580    2.3655 O   0  0  0  0  0  0  0  0  0  0  0  0
    4.6785   -1.0956    2.2799 C   0  0  0  0  0  0  0  0  0  0  0  0
    4.3410   -2.5447    2.0021 C   0  0  0  0  0  0  0  0  0  0  0  0
    1.3512   -1.7504    0.8868 S   0  0  0  0  0  0  0  0  0  0  0  0
   -0.2649   -1.0203    0.6146 C   0  0  0  0  0  0  0  0  0  0  0  0
   -0.4196   -0.4506   -1.1247 S   0  0  0  0  0  0  0  0  0  0  0  0
   -2.4653    0.0333   -1.0958 P   0  0  0  0  0  0  0  0  0  0  0  0
   -3.2805    0.6209   -2.7764 S   0  0  0  0  0  0  0  0  0  0  0  0
   -2.6521    1.0353    0.1357 O   0  0  0  0  0  0  0  0  0  0  0  0
   -2.6948    2.4580   -0.0532 C   0  0  0  0  0  0  0  0  0  0  0  0
   -1.3637    3.0121   -0.5178 C   0  0  0  0  0  0  0  0  0  0  0  0
   -3.0181   -1.3267   -0.4860 O   0  0  0  0  0  0  0  0  0  0  0  0
   -4.4002   -1.7137   -0.6324 C   0  0  0  0  0  0  0  0  0  0  0  0
   -5.3252   -0.8231    0.1698 C   0  0  0  0  0  0  0  0  0  0  0  0
    3.4013    2.3591   -1.5441 H   0  0  0  0  0  0  0  0  0  0  0  0
    2.4162    1.6742   -2.8503 H   0  0  0  0  0  0  0  0  0  0  0  0
    1.7254    1.8908   -1.2395 H   0  0  0  0  0  0  0  0  0  0  0  0
    3.9892   -0.0402   -1.9713 H   0  0  0  0  0  0  0  0  0  0  0  0
    2.2945   -0.4931   -1.6267 H   0  0  0  0  0  0  0  0  0  0  0  0
    5.3320   -0.6878    1.5070 H   0  0  0  0  0  0  0  0  0  0  0  0
    5.1399   -0.9717    3.2608 H   0  0  0  0  0  0  0  0  0  0  0  0
    3.6317   -2.9168    2.7368 H   0  0  0  0  0  0  0  0  0  0  0  0
    3.9036   -2.6521    1.0111 H   0  0  0  0  0  0  0  0  0  0  0  0
    5.2504   -3.1356    2.0517 H   0  0  0  0  0  0  0  0  0  0  0  0
   -0.3932   -0.1629    1.2783 H   0  0  0  0  0  0  0  0  0  0  0  0
   -1.0034   -1.7954    0.7969 H   0  0  0  0  0  0  0  0  0  0  0  0
   -3.4764    2.6843   -0.7859 H   0  0  0  0  0  0  0  0  0  0  0  0
   -2.9735    2.8484    0.9262 H   0  0  0  0  0  0  0  0  0  0  0  0
   -1.4332    4.0912   -0.6070 H   0  0  0  0  0  0  0  0  0  0  0  0
   -0.5766    2.7651    0.1920 H   0  0  0  0  0  0  0  0  0  0  0  0
   -1.1108    2.5933   -1.4925 H   0  0  0  0  0  0  0  0  0  0  0  0
   -4.6573   -1.6794   -1.6957 H   0  0  0  0  0  0  0  0  0  0  0  0
   -4.4207   -2.7452   -0.2781 H   0  0  0  0  0  0  0  0  0  0  0  0
   -6.3355   -1.2169    0.1198 H   0  0  0  0  0  0  0  0  0  0  0  0
   -5.0033   -0.7807    1.2072 H   0  0  0  0  0  0  0  0  0  0  0  0
   -5.3186    0.1850   -0.2426 H   0  0  0  0  0  0  0  0  0  0  0  0
  1  2  1  0  0  0  0
  2  3  1  0  0  0  0
  3  4  2  0  0  0  0
  4  5  2  0  0  0  0
  4  6  2  0  0  0  0
  6  7  1  0  0  0  0
  7  8  1  0  0  0  0
  4  9  1  0  0  0  0
  9 10  1  0  0  0  0
 10 11  1  0  0  0  0
 11 12  1  0  0  0  0
 12 13  2  0  0  0  0
 12 14  1  0  0  0  0
 14 15  1  0  0  0  0
 15 16  1  0  0  0  0
 12 17  2  0  0  0  0
 17 18  1  0  0  0  0
 18 19  1  0  0  0  0
  1 20  1  0  0  0  0
  1 21  1  0  0  0  0
  1 22  1  0  0  0  0
  2 23  1  0  0  0  0
  2 24  1  0  0  0  0
  7 25  1  0  0  0  0
  7 26  1  0  0  0  0
  8 27  1  0  0  0  0
  8 28  1  0  0  0  0
  8 29  1  0  0  0  0
 10 30  1  0  0  0  0
 10 31  1  0  0  0  0
 15 32  1  0  0  0  0
 15 33  1  0  0  0  0
 16 34  1  0  0  0  0
 16 35  1  0  0  0  0
 16 36  1  0  0  0  0
 18 37  1  0  0  0  0
 18 38  1  0  0  0  0
 19 39  1  0  0  0  0
 19 40  1  0  0  0  0
 19 41  1  0  0  0  0
M  END
