 xtb: 6.7.1 (edcfbbe)
          04092505203D

 41 40  0     0  0            999 V2000
    1.3333   -1.4630    3.1992 C   0  0  0  0  0  0  0  0  0  0  0  0
    2.0732   -0.1862    2.8537 C   0  0  0  0  0  0  0  0  0  0  0  0
    1.6463    0.3157    1.5618 O   0  0  0  0  0  0  0  0  0  0  0  0
    2.4712    0.0174    0.2432 P   0  0  0  0  0  0  0  0  0  0  0  0
    3.2249   -1.7874    0.0565 S   0  0  0  0  0  0  0  0  0  0  0  0
    3.5629    1.1732    0.2940 O   0  0  0  0  0  0  0  0  0  0  0  0
    4.7501    1.1437   -0.5173 C   0  0  0  0  0  0  0  0  0  0  0  0
    4.4376    1.3308   -1.9878 C   0  0  0  0  0  0  0  0  0  0  0  0
    1.0693    0.6293   -1.2091 S   0  0  0  0  0  0  0  0  0  0  0  0
    0.2029   -0.9621   -1.3119 C   0  0  0  0  0  0  0  0  0  0  0  0
   -0.9578   -1.2103    0.0457 S   0  0  0  0  0  0  0  0  0  0  0  0
   -2.3741    0.2630   -0.5830 P   0  0  0  0  0  0  0  0  0  0  0  0
   -2.5444    0.3988   -2.5297 S   0  0  0  0  0  0  0  0  0  0  0  0
   -2.0007    1.6476    0.0659 O   0  0  0  0  0  0  0  0  0  0  0  0
   -2.2888    2.0614    1.4251 C   0  0  0  0  0  0  0  0  0  0  0  0
   -1.6204    1.1760    2.4545 C   0  0  0  0  0  0  0  0  0  0  0  0
   -3.6943   -0.1450    0.1973 O   0  0  0  0  0  0  0  0  0  0  0  0
   -4.4504   -1.3120   -0.1910 C   0  0  0  0  0  0  0  0  0  0  0  0
   -5.8329   -1.1939    0.4173 C   0  0  0  0  0  0  0  0  0  0  0  0
    1.6102   -1.7750    4.2010 H   0  0  0  0  0  0  0  0  0  0  0  0
    0.2604   -1.3013    3.1526 H   0  0  0  0  0  0  0  0  0  0  0  0
    1.5950   -2.2509    2.4964 H   0  0  0  0  0  0  0  0  0  0  0  0
    3.1537   -0.3513    2.8349 H   0  0  0  0  0  0  0  0  0  0  0  0
    1.8385    0.6171    3.5537 H   0  0  0  0  0  0  0  0  0  0  0  0
    5.3564    1.9615   -0.1256 H   0  0  0  0  0  0  0  0  0  0  0  0
    5.2585    0.1883   -0.3515 H   0  0  0  0  0  0  0  0  0  0  0  0
    3.8770    0.4746   -2.3615 H   0  0  0  0  0  0  0  0  0  0  0  0
    3.8423    2.2283   -2.1372 H   0  0  0  0  0  0  0  0  0  0  0  0
    5.3646    1.4150   -2.5458 H   0  0  0  0  0  0  0  0  0  0  0  0
    0.9291   -1.7749   -1.2709 H   0  0  0  0  0  0  0  0  0  0  0  0
   -0.3441   -0.9599   -2.2553 H   0  0  0  0  0  0  0  0  0  0  0  0
   -1.9014    3.0810    1.4584 H   0  0  0  0  0  0  0  0  0  0  0  0
   -3.3725    2.0683    1.5549 H   0  0  0  0  0  0  0  0  0  0  0  0
   -0.5523    1.1181    2.2597 H   0  0  0  0  0  0  0  0  0  0  0  0
   -1.7835    1.5945    3.4428 H   0  0  0  0  0  0  0  0  0  0  0  0
   -2.0414    0.1728    2.4182 H   0  0  0  0  0  0  0  0  0  0  0  0
   -4.4942   -1.3502   -1.2843 H   0  0  0  0  0  0  0  0  0  0  0  0
   -3.9232   -2.1957    0.1775 H   0  0  0  0  0  0  0  0  0  0  0  0
   -6.4150   -2.0684    0.1463 H   0  0  0  0  0  0  0  0  0  0  0  0
   -5.7610   -1.1312    1.4991 H   0  0  0  0  0  0  0  0  0  0  0  0
   -6.3307   -0.3035    0.0435 H   0  0  0  0  0  0  0  0  0  0  0  0
  1  2  1  0  0  0  0
  2  3  1  0  0  0  0
  3  4  2  0  0  0  0
  4  5  2  0  0  0  0
  4  6  2  0  0  0  0
  6  7  1  0  0  0  0
  7  8  1  0  0  0  0
  4  9  1  0  0  0  0
  9 10  1  0  0  0  0
 10 11  1  0  0  0  0
 11 12  1  0  0  0  0
 12 13  2  0  0  0  0
 12 14  2  0  0  0  0
 14 15  1  0  0  0  0
 15 16  1  0  0  0  0
 12 17  2  0  0  0  0
 17 18  1  0  0  0  0
 18 19  1  0  0  0  0
  1 20  1  0  0  0  0
  1 21  1  0  0  0  0
  1 22  1  0  0  0  0
  2 23  1  0  0  0  0
  2 24  1  0  0  0  0
  7 25  1  0  0  0  0
  7 26  1  0  0  0  0
  8 27  1  0  0  0  0
  8 28  1  0  0  0  0
  8 29  1  0  0  0  0
 10 30  1  0  0  0  0
 10 31  1  0  0  0  0
 15 32  1  0  0  0  0
 15 33  1  0  0  0  0
 16 34  1  0  0  0  0
 16 35  1  0  0  0  0
 16 36  1  0  0  0  0
 18 37  1  0  0  0  0
 18 38  1  0  0  0  0
 19 39  1  0  0  0  0
 19 40  1  0  0  0  0
 19 41  1  0  0  0  0
M  END
