 xtb: 6.7.1 (edcfbbe)
          04092505213D

 41 40  0     0  0            999 V2000
    5.6638   -0.6286   -1.0813 C   0  0  0  0  0  0  0  0  0  0  0  0
    4.1699   -0.8825   -1.0905 C   0  0  0  0  0  0  0  0  0  0  0  0
    3.5247    0.2462   -0.4707 O   0  0  0  0  0  0  0  0  0  0  0  0
    1.9567    0.4846   -0.6290 P   0  0  0  0  0  0  0  0  0  0  0  0
    1.3509    0.4838   -2.4923 S   0  0  0  0  0  0  0  0  0  0  0  0
    1.7806    1.8656    0.0992 O   0  0  0  0  0  0  0  0  0  0  0  0
    2.5633    2.3199    1.2335 C   0  0  0  0  0  0  0  0  0  0  0  0
    2.4461    1.3996    2.4293 C   0  0  0  0  0  0  0  0  0  0  0  0
    1.1256   -1.0628    0.5906 S   0  0  0  0  0  0  0  0  0  0  0  0
   -0.0366   -1.8253   -0.5842 C   0  0  0  0  0  0  0  0  0  0  0  0
   -1.6636   -2.1575    0.1362 S   0  0  0  0  0  0  0  0  0  0  0  0
   -2.4311   -0.1917    0.4128 P   0  0  0  0  0  0  0  0  0  0  0  0
   -1.3406    1.2979   -0.2800 S   0  0  0  0  0  0  0  0  0  0  0  0
   -2.8221   -0.1606    1.9457 O   0  0  0  0  0  0  0  0  0  0  0  0
   -1.8324   -0.1992    2.9937 C   0  0  0  0  0  0  0  0  0  0  0  0
   -1.4761    1.2049    3.4437 C   0  0  0  0  0  0  0  0  0  0  0  0
   -3.9184   -0.2355   -0.1183 O   0  0  0  0  0  0  0  0  0  0  0  0
   -4.2560    0.1155   -1.4704 C   0  0  0  0  0  0  0  0  0  0  0  0
   -3.6825   -0.8637   -2.4760 C   0  0  0  0  0  0  0  0  0  0  0  0
    5.8923    0.2720   -1.6443 H   0  0  0  0  0  0  0  0  0  0  0  0
    6.0151   -0.5060   -0.0610 H   0  0  0  0  0  0  0  0  0  0  0  0
    6.1700   -1.4731   -1.5371 H   0  0  0  0  0  0  0  0  0  0  0  0
    3.9138   -1.7783   -0.5174 H   0  0  0  0  0  0  0  0  0  0  0  0
    3.7861   -0.9861   -2.1110 H   0  0  0  0  0  0  0  0  0  0  0  0
    3.6016    2.4160    0.9106 H   0  0  0  0  0  0  0  0  0  0  0  0
    2.1431    3.3056    1.4399 H   0  0  0  0  0  0  0  0  0  0  0  0
    2.8705    0.4235    2.1996 H   0  0  0  0  0  0  0  0  0  0  0  0
    2.9870    1.8341    3.2642 H   0  0  0  0  0  0  0  0  0  0  0  0
    1.4033    1.2700    2.7060 H   0  0  0  0  0  0  0  0  0  0  0  0
    0.3494   -2.7984   -0.8768 H   0  0  0  0  0  0  0  0  0  0  0  0
   -0.1230   -1.1602   -1.4480 H   0  0  0  0  0  0  0  0  0  0  0  0
   -2.3059   -0.7653    3.7980 H   0  0  0  0  0  0  0  0  0  0  0  0
   -0.9448   -0.7394    2.6450 H   0  0  0  0  0  0  0  0  0  0  0  0
   -2.3694    1.7263    3.7757 H   0  0  0  0  0  0  0  0  0  0  0  0
   -0.7645    1.1523    4.2618 H   0  0  0  0  0  0  0  0  0  0  0  0
   -1.0401    1.7640    2.6176 H   0  0  0  0  0  0  0  0  0  0  0  0
   -5.3468    0.1066   -1.4775 H   0  0  0  0  0  0  0  0  0  0  0  0
   -3.8918    1.1286   -1.6707 H   0  0  0  0  0  0  0  0  0  0  0  0
   -4.0804   -0.6432   -3.4615 H   0  0  0  0  0  0  0  0  0  0  0  0
   -2.5969   -0.7690   -2.5116 H   0  0  0  0  0  0  0  0  0  0  0  0
   -3.9408   -1.8831   -2.2005 H   0  0  0  0  0  0  0  0  0  0  0  0
  1  2  1  0  0  0  0
  2  3  1  0  0  0  0
  3  4  2  0  0  0  0
  4  5  2  0  0  0  0
  4  6  2  0  0  0  0
  6  7  1  0  0  0  0
  7  8  1  0  0  0  0
  4  9  1  0  0  0  0
  9 10  1  0  0  0  0
 10 11  1  0  0  0  0
 11 12  1  0  0  0  0
 12 13  2  0  0  0  0
 12 14  2  0  0  0  0
 14 15  1  0  0  0  0
 15 16  1  0  0  0  0
 12 17  2  0  0  0  0
 17 18  1  0  0  0  0
 18 19  1  0  0  0  0
  1 20  1  0  0  0  0
  1 21  1  0  0  0  0
  1 22  1  0  0  0  0
  2 23  1  0  0  0  0
  2 24  1  0  0  0  0
  7 25  1  0  0  0  0
  7 26  1  0  0  0  0
  8 27  1  0  0  0  0
  8 28  1  0  0  0  0
  8 29  1  0  0  0  0
 10 30  1  0  0  0  0
 10 31  1  0  0  0  0
 15 32  1  0  0  0  0
 15 33  1  0  0  0  0
 16 34  1  0  0  0  0
 16 35  1  0  0  0  0
 16 36  1  0  0  0  0
 18 37  1  0  0  0  0
 18 38  1  0  0  0  0
 19 39  1  0  0  0  0
 19 40  1  0  0  0  0
 19 41  1  0  0  0  0
M  END
