 xtb: 6.7.1 (edcfbbe)
          04092507313D

 38 37  0     0  0            999 V2000
    3.4312   -3.8641    0.1457 C   0  0  0  0  0  0  0  0  0  0  0  0
    3.8608   -2.8689   -0.9199 C   0  0  0  0  0  0  0  0  0  0  0  0
    2.7129   -2.2797   -1.5669 O   0  0  0  0  0  0  0  0  0  0  0  0
    2.1570   -1.2211   -1.0269 C   0  0  0  0  0  0  0  0  0  0  0  0
    2.5579   -0.6628   -0.0239 O   0  0  0  0  0  0  0  0  0  0  0  0
    0.9260   -0.7830   -1.7866 C   0  0  0  0  0  0  0  0  0  0  0  0
    0.5505    0.6607   -1.4492 C   0  0  0  0  0  0  0  0  0  0  0  0
    1.0422    1.3773   -2.1068 H   0  0  0  0  0  0  0  0  0  0  0  0
    0.8471    1.0192   -0.0076 C   0  0  0  0  0  0  0  0  0  0  0  0
    0.1775    0.5466    0.9011 O   0  0  0  0  0  0  0  0  0  0  0  0
    1.7347    1.9560    0.1266 O   0  0  0  0  0  0  0  0  0  0  0  0
    2.0666    2.3918    1.4635 C   0  0  0  0  0  0  0  0  0  0  0  0
    2.8081    3.7088    1.3556 C   0  0  0  0  0  0  0  0  0  0  0  0
   -1.2483    0.9235   -1.6259 S   0  0  0  0  0  0  0  0  0  0  0  0
   -2.0626    0.1978    0.2034 P   0  0  0  0  0  0  0  0  0  0  0  0
   -2.4199    1.2683    1.8183 S   0  0  0  0  0  0  0  0  0  0  0  0
   -3.4358   -0.0143   -0.6158 O   0  0  0  0  0  0  0  0  0  0  0  0
   -4.6705   -0.3429    0.0216 C   0  0  0  0  0  0  0  0  0  0  0  0
   -1.6810   -1.3461    0.4433 O   0  0  0  0  0  0  0  0  0  0  0  0
   -0.9985   -1.8457    1.5902 C   0  0  0  0  0  0  0  0  0  0  0  0
    2.7799   -4.6186   -0.2866 H   0  0  0  0  0  0  0  0  0  0  0  0
    4.3101   -4.3459    0.5609 H   0  0  0  0  0  0  0  0  0  0  0  0
    2.9003   -3.3534    0.9465 H   0  0  0  0  0  0  0  0  0  0  0  0
    4.4021   -3.3603   -1.7280 H   0  0  0  0  0  0  0  0  0  0  0  0
    4.4649   -2.0684   -0.4842 H   0  0  0  0  0  0  0  0  0  0  0  0
    0.1180   -1.4587   -1.4883 H   0  0  0  0  0  0  0  0  0  0  0  0
    1.0773   -0.9076   -2.8575 H   0  0  0  0  0  0  0  0  0  0  0  0
    1.1388    2.4832    2.0377 H   0  0  0  0  0  0  0  0  0  0  0  0
    2.6839    1.6093    1.9142 H   0  0  0  0  0  0  0  0  0  0  0  0
    3.0875    4.0414    2.3496 H   0  0  0  0  0  0  0  0  0  0  0  0
    3.7022    3.5818    0.7532 H   0  0  0  0  0  0  0  0  0  0  0  0
    2.1737    4.4591    0.8931 H   0  0  0  0  0  0  0  0  0  0  0  0
   -4.7018   -1.4098    0.2405 H   0  0  0  0  0  0  0  0  0  0  0  0
   -5.4510   -0.0737   -0.6858 H   0  0  0  0  0  0  0  0  0  0  0  0
   -4.7815    0.2285    0.9463 H   0  0  0  0  0  0  0  0  0  0  0  0
   -1.3734   -2.8550    1.7439 H   0  0  0  0  0  0  0  0  0  0  0  0
   -1.2098   -1.2175    2.4571 H   0  0  0  0  0  0  0  0  0  0  0  0
    0.0764   -1.8516    1.4113 H   0  0  0  0  0  0  0  0  0  0  0  0
  1  2  1  0  0  0  0
  2  3  1  0  0  0  0
  3  4  4  0  0  0  0
  4  5  2  0  0  0  0
  4  6  1  0  0  0  0
  6  7  1  0  0  0  0
  7  8  1  0  0  0  0
  7  9  1  0  0  0  0
  9 10  2  0  0  0  0
  9 11  4  0  0  0  0
 11 12  1  0  0  0  0
 12 13  1  0  0  0  0
  7 14  1  0  0  0  0
 14 15  1  0  0  0  0
 15 16  2  0  0  0  0
 15 17  1  0  0  0  0
 17 18  1  0  0  0  0
 15 19  1  0  0  0  0
 19 20  1  0  0  0  0
  1 21  1  0  0  0  0
  1 22  1  0  0  0  0
  1 23  1  0  0  0  0
  2 24  1  0  0  0  0
  2 25  1  0  0  0  0
  6 26  1  0  0  0  0
  6 27  1  0  0  0  0
 12 28  1  0  0  0  0
 12 29  1  0  0  0  0
 13 30  1  0  0  0  0
 13 31  1  0  0  0  0
 13 32  1  0  0  0  0
 18 33  1  0  0  0  0
 18 34  1  0  0  0  0
 18 35  1  0  0  0  0
 20 36  1  0  0  0  0
 20 37  1  0  0  0  0
 20 38  1  0  0  0  0
M  END
