 xtb: 6.7.1 (edcfbbe)
          04092505203D

 41 40  0     0  0            999 V2000
    2.7630   -2.8202    0.5053 C   0  0  0  0  0  0  0  0  0  0  0  0
    2.3710   -1.7472    1.5020 C   0  0  0  0  0  0  0  0  0  0  0  0
    1.5411   -0.7350    0.9044 O   0  0  0  0  0  0  0  0  0  0  0  0
    2.1273    0.3152   -0.1252 P   0  0  0  0  0  0  0  0  0  0  0  0
    3.9311    0.9583    0.2727 S   0  0  0  0  0  0  0  0  0  0  0  0
    0.9263    1.3593   -0.0243 O   0  0  0  0  0  0  0  0  0  0  0  0
    1.0914    2.6645   -0.6258 C   0  0  0  0  0  0  0  0  0  0  0  0
    1.5155    3.6841    0.4114 C   0  0  0  0  0  0  0  0  0  0  0  0
    1.9201   -0.5048   -2.0711 S   0  0  0  0  0  0  0  0  0  0  0  0
    0.1118   -0.6778   -2.2073 C   0  0  0  0  0  0  0  0  0  0  0  0
   -0.6670   -1.6986   -0.9225 S   0  0  0  0  0  0  0  0  0  0  0  0
   -1.7827   -0.2357    0.1060 P   0  0  0  0  0  0  0  0  0  0  0  0
   -2.1835    1.4157   -0.8822 S   0  0  0  0  0  0  0  0  0  0  0  0
   -1.0799   -0.1012    1.5131 O   0  0  0  0  0  0  0  0  0  0  0  0
   -1.2358    1.0711    2.3335 C   0  0  0  0  0  0  0  0  0  0  0  0
   -2.6147    1.1349    2.9559 C   0  0  0  0  0  0  0  0  0  0  0  0
   -3.0821   -1.0583    0.5215 O   0  0  0  0  0  0  0  0  0  0  0  0
   -4.0875   -1.4104   -0.4475 C   0  0  0  0  0  0  0  0  0  0  0  0
   -5.2882   -1.9509    0.3023 C   0  0  0  0  0  0  0  0  0  0  0  0
    3.4130   -2.3982   -0.2608 H   0  0  0  0  0  0  0  0  0  0  0  0
    3.2965   -3.6109    1.0229 H   0  0  0  0  0  0  0  0  0  0  0  0
    1.8774   -3.2348    0.0285 H   0  0  0  0  0  0  0  0  0  0  0  0
    3.2596   -1.2636    1.9211 H   0  0  0  0  0  0  0  0  0  0  0  0
    1.7518   -2.1504    2.3048 H   0  0  0  0  0  0  0  0  0  0  0  0
    1.8312    2.5992   -1.4307 H   0  0  0  0  0  0  0  0  0  0  0  0
    0.1134    2.9095   -1.0483 H   0  0  0  0  0  0  0  0  0  0  0  0
    0.7870    3.7290    1.2164 H   0  0  0  0  0  0  0  0  0  0  0  0
    2.4844    3.4154    0.8269 H   0  0  0  0  0  0  0  0  0  0  0  0
    1.5886    4.6584   -0.0610 H   0  0  0  0  0  0  0  0  0  0  0  0
   -0.0390   -1.1787   -3.1604 H   0  0  0  0  0  0  0  0  0  0  0  0
   -0.3635    0.3062   -2.2033 H   0  0  0  0  0  0  0  0  0  0  0  0
   -0.4501    0.9748    3.0842 H   0  0  0  0  0  0  0  0  0  0  0  0
   -1.0458    1.9547    1.7159 H   0  0  0  0  0  0  0  0  0  0  0  0
   -2.8232    0.2174    3.4995 H   0  0  0  0  0  0  0  0  0  0  0  0
   -2.6653    1.9801    3.6354 H   0  0  0  0  0  0  0  0  0  0  0  0
   -3.3655    1.2604    2.1765 H   0  0  0  0  0  0  0  0  0  0  0  0
   -4.3429   -0.5152   -1.0247 H   0  0  0  0  0  0  0  0  0  0  0  0
   -3.6684   -2.1618   -1.1230 H   0  0  0  0  0  0  0  0  0  0  0  0
   -4.9955   -2.8122    0.8956 H   0  0  0  0  0  0  0  0  0  0  0  0
   -5.6925   -1.1894    0.9631 H   0  0  0  0  0  0  0  0  0  0  0  0
   -6.0497   -2.2469   -0.4116 H   0  0  0  0  0  0  0  0  0  0  0  0
  1  2  1  0  0  0  0
  2  3  1  0  0  0  0
  3  4  2  0  0  0  0
  4  5  2  0  0  0  0
  4  6  1  0  0  0  0
  6  7  1  0  0  0  0
  7  8  1  0  0  0  0
  4  9  1  0  0  0  0
  9 10  1  0  0  0  0
 10 11  1  0  0  0  0
 11 12  1  0  0  0  0
 12 13  2  0  0  0  0
 12 14  2  0  0  0  0
 14 15  1  0  0  0  0
 15 16  1  0  0  0  0
 12 17  2  0  0  0  0
 17 18  1  0  0  0  0
 18 19  1  0  0  0  0
  1 20  1  0  0  0  0
  1 21  1  0  0  0  0
  1 22  1  0  0  0  0
  2 23  1  0  0  0  0
  2 24  1  0  0  0  0
  7 25  1  0  0  0  0
  7 26  1  0  0  0  0
  8 27  1  0  0  0  0
  8 28  1  0  0  0  0
  8 29  1  0  0  0  0
 10 30  1  0  0  0  0
 10 31  1  0  0  0  0
 15 32  1  0  0  0  0
 15 33  1  0  0  0  0
 16 34  1  0  0  0  0
 16 35  1  0  0  0  0
 16 36  1  0  0  0  0
 18 37  1  0  0  0  0
 18 38  1  0  0  0  0
 19 39  1  0  0  0  0
 19 40  1  0  0  0  0
 19 41  1  0  0  0  0
M  END
