 xtb: 6.7.1 (edcfbbe)
          04092505213D

 41 40  0     0  0            999 V2000
    4.9406   -0.9970   -2.7033 C   0  0  0  0  0  0  0  0  0  0  0  0
    4.5962   -0.8340   -1.2377 C   0  0  0  0  0  0  0  0  0  0  0  0
    3.2331   -0.3549   -1.1506 O   0  0  0  0  0  0  0  0  0  0  0  0
    2.7212    0.3930    0.1524 P   0  0  0  0  0  0  0  0  0  0  0  0
    3.8498    1.8441    0.8267 S   0  0  0  0  0  0  0  0  0  0  0  0
    2.5634   -0.8361    1.1611 O   0  0  0  0  0  0  0  0  0  0  0  0
    2.4974   -0.6465    2.5844 C   0  0  0  0  0  0  0  0  0  0  0  0
    1.1673   -0.0587    3.0084 C   0  0  0  0  0  0  0  0  0  0  0  0
    0.7963    0.9093   -0.5270 S   0  0  0  0  0  0  0  0  0  0  0  0
    0.1584   -0.7729   -0.8607 C   0  0  0  0  0  0  0  0  0  0  0  0
   -1.1175   -1.2747    0.3096 S   0  0  0  0  0  0  0  0  0  0  0  0
   -2.6379    0.0043   -0.4665 P   0  0  0  0  0  0  0  0  0  0  0  0
   -2.7243    0.1307   -2.4152 S   0  0  0  0  0  0  0  0  0  0  0  0
   -2.3680    1.4100    0.1932 O   0  0  0  0  0  0  0  0  0  0  0  0
   -2.2607    1.6360    1.6197 C   0  0  0  0  0  0  0  0  0  0  0  0
   -3.5863    2.0872    2.1970 C   0  0  0  0  0  0  0  0  0  0  0  0
   -3.9605   -0.4886    0.2637 O   0  0  0  0  0  0  0  0  0  0  0  0
   -4.7906   -1.5417   -0.2614 C   0  0  0  0  0  0  0  0  0  0  0  0
   -4.0868   -2.8830   -0.2675 C   0  0  0  0  0  0  0  0  0  0  0  0
    4.2558   -1.6978   -3.1720 H   0  0  0  0  0  0  0  0  0  0  0  0
    4.8659   -0.0402   -3.2128 H   0  0  0  0  0  0  0  0  0  0  0  0
    5.9554   -1.3711   -2.7908 H   0  0  0  0  0  0  0  0  0  0  0  0
    5.2521   -0.1053   -0.7491 H   0  0  0  0  0  0  0  0  0  0  0  0
    4.6541   -1.7842   -0.7017 H   0  0  0  0  0  0  0  0  0  0  0  0
    2.6465   -1.6467    2.9925 H   0  0  0  0  0  0  0  0  0  0  0  0
    3.3220    0.0090    2.8825 H   0  0  0  0  0  0  0  0  0  0  0  0
    1.1400    0.0287    4.0895 H   0  0  0  0  0  0  0  0  0  0  0  0
    1.0494    0.9326    2.5703 H   0  0  0  0  0  0  0  0  0  0  0  0
    0.3520   -0.6966    2.6755 H   0  0  0  0  0  0  0  0  0  0  0  0
    0.9725   -1.4876   -0.7870 H   0  0  0  0  0  0  0  0  0  0  0  0
   -0.2722   -0.7566   -1.8625 H   0  0  0  0  0  0  0  0  0  0  0  0
   -1.9143    0.7170    2.1005 H   0  0  0  0  0  0  0  0  0  0  0  0
   -1.4980    2.4118    1.7122 H   0  0  0  0  0  0  0  0  0  0  0  0
   -4.3285    1.2998    2.0975 H   0  0  0  0  0  0  0  0  0  0  0  0
   -3.4518    2.3242    3.2477 H   0  0  0  0  0  0  0  0  0  0  0  0
   -3.9392    2.9709    1.6724 H   0  0  0  0  0  0  0  0  0  0  0  0
   -5.6563   -1.5442    0.4023 H   0  0  0  0  0  0  0  0  0  0  0  0
   -5.0986   -1.2637   -1.2738 H   0  0  0  0  0  0  0  0  0  0  0  0
   -3.2793   -2.8773   -0.9978 H   0  0  0  0  0  0  0  0  0  0  0  0
   -3.6727   -3.0987    0.7142 H   0  0  0  0  0  0  0  0  0  0  0  0
   -4.7976   -3.6573   -0.5377 H   0  0  0  0  0  0  0  0  0  0  0  0
  1  2  1  0  0  0  0
  2  3  1  0  0  0  0
  3  4  2  0  0  0  0
  4  5  2  0  0  0  0
  4  6  2  0  0  0  0
  6  7  1  0  0  0  0
  7  8  1  0  0  0  0
  4  9  1  0  0  0  0
  9 10  1  0  0  0  0
 10 11  1  0  0  0  0
 11 12  1  0  0  0  0
 12 13  2  0  0  0  0
 12 14  2  0  0  0  0
 14 15  1  0  0  0  0
 15 16  1  0  0  0  0
 12 17  2  0  0  0  0
 17 18  1  0  0  0  0
 18 19  1  0  0  0  0
  1 20  1  0  0  0  0
  1 21  1  0  0  0  0
  1 22  1  0  0  0  0
  2 23  1  0  0  0  0
  2 24  1  0  0  0  0
  7 25  1  0  0  0  0
  7 26  1  0  0  0  0
  8 27  1  0  0  0  0
  8 28  1  0  0  0  0
  8 29  1  0  0  0  0
 10 30  1  0  0  0  0
 10 31  1  0  0  0  0
 15 32  1  0  0  0  0
 15 33  1  0  0  0  0
 16 34  1  0  0  0  0
 16 35  1  0  0  0  0
 16 36  1  0  0  0  0
 18 37  1  0  0  0  0
 18 38  1  0  0  0  0
 19 39  1  0  0  0  0
 19 40  1  0  0  0  0
 19 41  1  0  0  0  0
M  END
