 xtb: 6.7.1 (edcfbbe)
          04092505203D

 41 40  0     0  0            999 V2000
    2.0189   -1.2971    3.2533 C   0  0  0  0  0  0  0  0  0  0  0  0
    1.1753   -1.1603    2.0010 C   0  0  0  0  0  0  0  0  0  0  0  0
    1.5956    0.0057    1.2727 O   0  0  0  0  0  0  0  0  0  0  0  0
    2.1950   -0.0024   -0.2022 P   0  0  0  0  0  0  0  0  0  0  0  0
    2.8284   -1.7586   -0.8097 S   0  0  0  0  0  0  0  0  0  0  0  0
    3.2049    1.2168   -0.1562 O   0  0  0  0  0  0  0  0  0  0  0  0
    4.2145    1.3804    0.8634 C   0  0  0  0  0  0  0  0  0  0  0  0
    5.3629    0.4068    0.6890 C   0  0  0  0  0  0  0  0  0  0  0  0
    0.8182    0.9680   -1.4807 S   0  0  0  0  0  0  0  0  0  0  0  0
   -0.0363   -0.5224   -2.0642 C   0  0  0  0  0  0  0  0  0  0  0  0
   -0.8770   -1.4227   -0.7334 S   0  0  0  0  0  0  0  0  0  0  0  0
   -2.1713    0.1479   -0.1538 P   0  0  0  0  0  0  0  0  0  0  0  0
   -2.9107    1.2777   -1.5781 S   0  0  0  0  0  0  0  0  0  0  0  0
   -1.2551    0.8611    0.9258 O   0  0  0  0  0  0  0  0  0  0  0  0
   -1.3985    2.2558    1.2575 C   0  0  0  0  0  0  0  0  0  0  0  0
   -2.6805    2.5175    2.0195 C   0  0  0  0  0  0  0  0  0  0  0  0
   -3.2429   -0.5590    0.7804 O   0  0  0  0  0  0  0  0  0  0  0  0
   -4.4751   -1.1020    0.2737 C   0  0  0  0  0  0  0  0  0  0  0  0
   -4.2466   -2.3243   -0.5916 C   0  0  0  0  0  0  0  0  0  0  0  0
    1.9487   -0.3956    3.8556 H   0  0  0  0  0  0  0  0  0  0  0  0
    1.6592   -2.1426    3.8303 H   0  0  0  0  0  0  0  0  0  0  0  0
    3.0595   -1.4676    2.9862 H   0  0  0  0  0  0  0  0  0  0  0  0
    0.1194   -1.0105    2.2379 H   0  0  0  0  0  0  0  0  0  0  0  0
    1.2817   -2.0414    1.3591 H   0  0  0  0  0  0  0  0  0  0  0  0
    4.5444    2.4125    0.7326 H   0  0  0  0  0  0  0  0  0  0  0  0
    3.7443    1.2637    1.8430 H   0  0  0  0  0  0  0  0  0  0  0  0
    5.7911    0.5052   -0.3053 H   0  0  0  0  0  0  0  0  0  0  0  0
    6.1268    0.6149    1.4316 H   0  0  0  0  0  0  0  0  0  0  0  0
    5.0150   -0.6176    0.8117 H   0  0  0  0  0  0  0  0  0  0  0  0
    0.6839   -1.2161   -2.4974 H   0  0  0  0  0  0  0  0  0  0  0  0
   -0.7655   -0.1911   -2.8025 H   0  0  0  0  0  0  0  0  0  0  0  0
   -0.5131    2.4755    1.8561 H   0  0  0  0  0  0  0  0  0  0  0  0
   -1.3687    2.8377    0.3303 H   0  0  0  0  0  0  0  0  0  0  0  0
   -2.7117    3.5582    2.3262 H   0  0  0  0  0  0  0  0  0  0  0  0
   -3.5370    2.3112    1.3785 H   0  0  0  0  0  0  0  0  0  0  0  0
   -2.7351    1.8776    2.8963 H   0  0  0  0  0  0  0  0  0  0  0  0
   -5.0431   -1.3445    1.1729 H   0  0  0  0  0  0  0  0  0  0  0  0
   -4.9891   -0.3199   -0.2942 H   0  0  0  0  0  0  0  0  0  0  0  0
   -3.7319   -2.0412   -1.5089 H   0  0  0  0  0  0  0  0  0  0  0  0
   -3.6391   -3.0543   -0.0627 H   0  0  0  0  0  0  0  0  0  0  0  0
   -5.2036   -2.7674   -0.8478 H   0  0  0  0  0  0  0  0  0  0  0  0
  1  2  1  0  0  0  0
  2  3  1  0  0  0  0
  3  4  2  0  0  0  0
  4  5  2  0  0  0  0
  4  6  2  0  0  0  0
  6  7  1  0  0  0  0
  7  8  1  0  0  0  0
  4  9  1  0  0  0  0
  9 10  1  0  0  0  0
 10 11  1  0  0  0  0
 11 12  1  0  0  0  0
 12 13  2  0  0  0  0
 12 14  2  0  0  0  0
 14 15  1  0  0  0  0
 15 16  1  0  0  0  0
 12 17  2  0  0  0  0
 17 18  1  0  0  0  0
 18 19  1  0  0  0  0
  1 20  1  0  0  0  0
  1 21  1  0  0  0  0
  1 22  1  0  0  0  0
  2 23  1  0  0  0  0
  2 24  1  0  0  0  0
  7 25  1  0  0  0  0
  7 26  1  0  0  0  0
  8 27  1  0  0  0  0
  8 28  1  0  0  0  0
  8 29  1  0  0  0  0
 10 30  1  0  0  0  0
 10 31  1  0  0  0  0
 15 32  1  0  0  0  0
 15 33  1  0  0  0  0
 16 34  1  0  0  0  0
 16 35  1  0  0  0  0
 16 36  1  0  0  0  0
 18 37  1  0  0  0  0
 18 38  1  0  0  0  0
 19 39  1  0  0  0  0
 19 40  1  0  0  0  0
 19 41  1  0  0  0  0
M  END
