 xtb: 6.7.1 (edcfbbe)
          04092505213D

 41 40  0     0  0            999 V2000
    4.5018   -1.4886    0.8219 C   0  0  0  0  0  0  0  0  0  0  0  0
    4.5589   -0.8981   -0.5711 C   0  0  0  0  0  0  0  0  0  0  0  0
    3.2717   -0.8838   -1.2274 O   0  0  0  0  0  0  0  0  0  0  0  0
    1.9729   -0.1373   -0.6893 P   0  0  0  0  0  0  0  0  0  0  0  0
    0.7888    0.2431   -2.1970 S   0  0  0  0  0  0  0  0  0  0  0  0
    2.5351    1.0898    0.1498 O   0  0  0  0  0  0  0  0  0  0  0  0
    2.3091    2.4659   -0.2001 C   0  0  0  0  0  0  0  0  0  0  0  0
    3.3766    2.9511   -1.1599 C   0  0  0  0  0  0  0  0  0  0  0  0
    1.2012   -1.4433    0.7992 S   0  0  0  0  0  0  0  0  0  0  0  0
   -0.2827   -2.0518   -0.0635 C   0  0  0  0  0  0  0  0  0  0  0  0
   -1.8217   -1.7873    0.8498 S   0  0  0  0  0  0  0  0  0  0  0  0
   -2.0603    0.3101    0.5563 P   0  0  0  0  0  0  0  0  0  0  0  0
   -0.6246    1.5093    1.1306 S   0  0  0  0  0  0  0  0  0  0  0  0
   -3.4970    0.5651    1.1849 O   0  0  0  0  0  0  0  0  0  0  0  0
   -3.9311    0.1167    2.4837 C   0  0  0  0  0  0  0  0  0  0  0  0
   -2.9724    0.5027    3.5899 C   0  0  0  0  0  0  0  0  0  0  0  0
   -2.3322    0.5291   -0.9777 O   0  0  0  0  0  0  0  0  0  0  0  0
   -3.3736   -0.1547   -1.7210 C   0  0  0  0  0  0  0  0  0  0  0  0
   -3.0356   -0.0397   -3.1928 C   0  0  0  0  0  0  0  0  0  0  0  0
    5.5051   -1.5199    1.2355 H   0  0  0  0  0  0  0  0  0  0  0  0
    3.8726   -0.8723    1.4638 H   0  0  0  0  0  0  0  0  0  0  0  0
    4.0922   -2.4950    0.7949 H   0  0  0  0  0  0  0  0  0  0  0  0
    5.1731   -1.5014   -1.2414 H   0  0  0  0  0  0  0  0  0  0  0  0
    4.9391    0.1256   -0.5404 H   0  0  0  0  0  0  0  0  0  0  0  0
    1.3124    2.5670   -0.6397 H   0  0  0  0  0  0  0  0  0  0  0  0
    2.3318    2.9992    0.7513 H   0  0  0  0  0  0  0  0  0  0  0  0
    4.3623    2.8477   -0.7141 H   0  0  0  0  0  0  0  0  0  0  0  0
    3.3364    2.3685   -2.0801 H   0  0  0  0  0  0  0  0  0  0  0  0
    3.1971    3.9953   -1.3950 H   0  0  0  0  0  0  0  0  0  0  0  0
   -0.1921   -3.1296   -0.1692 H   0  0  0  0  0  0  0  0  0  0  0  0
   -0.3405   -1.5576   -1.0378 H   0  0  0  0  0  0  0  0  0  0  0  0
   -4.9020    0.5992    2.6089 H   0  0  0  0  0  0  0  0  0  0  0  0
   -4.0561   -0.9687    2.4411 H   0  0  0  0  0  0  0  0  0  0  0  0
   -3.3858    0.2022    4.5471 H   0  0  0  0  0  0  0  0  0  0  0  0
   -2.0133    0.0061    3.4461 H   0  0  0  0  0  0  0  0  0  0  0  0
   -2.8044    1.5773    3.5894 H   0  0  0  0  0  0  0  0  0  0  0  0
   -3.4091   -1.1990   -1.3962 H   0  0  0  0  0  0  0  0  0  0  0  0
   -4.3227    0.3298   -1.4845 H   0  0  0  0  0  0  0  0  0  0  0  0
   -2.0463   -0.4493   -3.3839 H   0  0  0  0  0  0  0  0  0  0  0  0
   -3.7726   -0.5840   -3.7741 H   0  0  0  0  0  0  0  0  0  0  0  0
   -3.0321    1.0036   -3.4946 H   0  0  0  0  0  0  0  0  0  0  0  0
  1  2  1  0  0  0  0
  2  3  1  0  0  0  0
  3  4  2  0  0  0  0
  4  5  2  0  0  0  0
  4  6  2  0  0  0  0
  6  7  1  0  0  0  0
  7  8  1  0  0  0  0
  4  9  1  0  0  0  0
  9 10  1  0  0  0  0
 10 11  1  0  0  0  0
 11 12  1  0  0  0  0
 12 13  2  0  0  0  0
 12 14  2  0  0  0  0
 14 15  1  0  0  0  0
 15 16  1  0  0  0  0
 12 17  2  0  0  0  0
 17 18  1  0  0  0  0
 18 19  1  0  0  0  0
  1 20  1  0  0  0  0
  1 21  1  0  0  0  0
  1 22  1  0  0  0  0
  2 23  1  0  0  0  0
  2 24  1  0  0  0  0
  7 25  1  0  0  0  0
  7 26  1  0  0  0  0
  8 27  1  0  0  0  0
  8 28  1  0  0  0  0
  8 29  1  0  0  0  0
 10 30  1  0  0  0  0
 10 31  1  0  0  0  0
 15 32  1  0  0  0  0
 15 33  1  0  0  0  0
 16 34  1  0  0  0  0
 16 35  1  0  0  0  0
 16 36  1  0  0  0  0
 18 37  1  0  0  0  0
 18 38  1  0  0  0  0
 19 39  1  0  0  0  0
 19 40  1  0  0  0  0
 19 41  1  0  0  0  0
M  END
