 xtb: 6.7.1 (edcfbbe)
          04092505213D

 41 40  0     0  0            999 V2000
    5.3827   -1.2993    0.1731 C   0  0  0  0  0  0  0  0  0  0  0  0
    4.6467   -1.3688   -1.1501 C   0  0  0  0  0  0  0  0  0  0  0  0
    3.2190   -1.4041   -0.9537 O   0  0  0  0  0  0  0  0  0  0  0  0
    2.3950   -0.1008   -0.5447 P   0  0  0  0  0  0  0  0  0  0  0  0
    3.1707    1.6261   -1.0163 S   0  0  0  0  0  0  0  0  0  0  0  0
    2.1349   -0.1923    1.0195 O   0  0  0  0  0  0  0  0  0  0  0  0
    1.6814   -1.4087    1.6597 C   0  0  0  0  0  0  0  0  0  0  0  0
    0.8663   -1.0262    2.8779 C   0  0  0  0  0  0  0  0  0  0  0  0
    0.5770   -0.6352   -1.4923 S   0  0  0  0  0  0  0  0  0  0  0  0
   -0.1456    1.0254   -1.4254 C   0  0  0  0  0  0  0  0  0  0  0  0
   -0.6565    1.5122    0.2429 S   0  0  0  0  0  0  0  0  0  0  0  0
   -2.4153    0.3473    0.2712 P   0  0  0  0  0  0  0  0  0  0  0  0
   -3.4911    0.3105   -1.3735 S   0  0  0  0  0  0  0  0  0  0  0  0
   -3.2056    0.8074    1.5720 O   0  0  0  0  0  0  0  0  0  0  0  0
   -4.1791    1.8662    1.5492 C   0  0  0  0  0  0  0  0  0  0  0  0
   -3.5466    3.2136    1.2678 C   0  0  0  0  0  0  0  0  0  0  0  0
   -1.8238   -1.0433    0.7383 O   0  0  0  0  0  0  0  0  0  0  0  0
   -2.5654   -2.2789    0.6051 C   0  0  0  0  0  0  0  0  0  0  0  0
   -1.5807   -3.4066    0.3752 C   0  0  0  0  0  0  0  0  0  0  0  0
    5.1342   -2.1572    0.7923 H   0  0  0  0  0  0  0  0  0  0  0  0
    6.4526   -1.2875   -0.0096 H   0  0  0  0  0  0  0  0  0  0  0  0
    5.1039   -0.3862    0.6994 H   0  0  0  0  0  0  0  0  0  0  0  0
    4.8646   -2.2905   -1.6909 H   0  0  0  0  0  0  0  0  0  0  0  0
    4.8932   -0.5037   -1.7730 H   0  0  0  0  0  0  0  0  0  0  0  0
    1.0890   -1.9854    0.9427 H   0  0  0  0  0  0  0  0  0  0  0  0
    2.5684   -1.9818    1.9382 H   0  0  0  0  0  0  0  0  0  0  0  0
    1.4479   -0.3709    3.5197 H   0  0  0  0  0  0  0  0  0  0  0  0
   -0.0403   -0.5058    2.5788 H   0  0  0  0  0  0  0  0  0  0  0  0
    0.5989   -1.9241    3.4259 H   0  0  0  0  0  0  0  0  0  0  0  0
   -1.0162    1.0212   -2.0823 H   0  0  0  0  0  0  0  0  0  0  0  0
    0.5966    1.7532   -1.7545 H   0  0  0  0  0  0  0  0  0  0  0  0
   -4.9298    1.6276    0.7893 H   0  0  0  0  0  0  0  0  0  0  0  0
   -4.6288    1.8301    2.5422 H   0  0  0  0  0  0  0  0  0  0  0  0
   -3.1549    3.2359    0.2514 H   0  0  0  0  0  0  0  0  0  0  0  0
   -4.2950    3.9924    1.3731 H   0  0  0  0  0  0  0  0  0  0  0  0
   -2.7294    3.4005    1.9601 H   0  0  0  0  0  0  0  0  0  0  0  0
   -3.1345   -2.4223    1.5260 H   0  0  0  0  0  0  0  0  0  0  0  0
   -3.2589   -2.1809   -0.2371 H   0  0  0  0  0  0  0  0  0  0  0  0
   -0.9126   -3.5002    1.2262 H   0  0  0  0  0  0  0  0  0  0  0  0
   -2.1296   -4.3340    0.2470 H   0  0  0  0  0  0  0  0  0  0  0  0
   -0.9950   -3.2121   -0.5201 H   0  0  0  0  0  0  0  0  0  0  0  0
  1  2  1  0  0  0  0
  2  3  1  0  0  0  0
  3  4  1  0  0  0  0
  4  5  2  0  0  0  0
  4  6  2  0  0  0  0
  6  7  1  0  0  0  0
  7  8  1  0  0  0  0
  4  9  1  0  0  0  0
  9 10  1  0  0  0  0
 10 11  1  0  0  0  0
 11 12  1  0  0  0  0
 12 13  2  0  0  0  0
 12 14  2  0  0  0  0
 14 15  1  0  0  0  0
 15 16  1  0  0  0  0
 12 17  2  0  0  0  0
 17 18  1  0  0  0  0
 18 19  1  0  0  0  0
  1 20  1  0  0  0  0
  1 21  1  0  0  0  0
  1 22  1  0  0  0  0
  2 23  1  0  0  0  0
  2 24  1  0  0  0  0
  7 25  1  0  0  0  0
  7 26  1  0  0  0  0
  8 27  1  0  0  0  0
  8 28  1  0  0  0  0
  8 29  1  0  0  0  0
 10 30  1  0  0  0  0
 10 31  1  0  0  0  0
 15 32  1  0  0  0  0
 15 33  1  0  0  0  0
 16 34  1  0  0  0  0
 16 35  1  0  0  0  0
 16 36  1  0  0  0  0
 18 37  1  0  0  0  0
 18 38  1  0  0  0  0
 19 39  1  0  0  0  0
 19 40  1  0  0  0  0
 19 41  1  0  0  0  0
M  END
