 xtb: 6.7.1 (edcfbbe)
          04092505213D

 41 40  0     0  0            999 V2000
    3.7820    0.6531   -3.0199 C   0  0  0  0  0  0  0  0  0  0  0  0
    2.4964    0.4580   -2.2428 C   0  0  0  0  0  0  0  0  0  0  0  0
    2.8245   -0.1919   -1.0006 O   0  0  0  0  0  0  0  0  0  0  0  0
    2.0424    0.0212    0.3634 P   0  0  0  0  0  0  0  0  0  0  0  0
    1.4755    1.8465    0.7615 S   0  0  0  0  0  0  0  0  0  0  0  0
    3.0865   -0.4669    1.4381 O   0  0  0  0  0  0  0  0  0  0  0  0
    3.8137   -1.7213    1.3492 C   0  0  0  0  0  0  0  0  0  0  0  0
    3.3505   -2.6737    2.4336 C   0  0  0  0  0  0  0  0  0  0  0  0
    0.6102   -1.5694    0.2920 S   0  0  0  0  0  0  0  0  0  0  0  0
   -0.2467   -1.2228    1.8440 C   0  0  0  0  0  0  0  0  0  0  0  0
   -1.3538    0.2339    1.8050 S   0  0  0  0  0  0  0  0  0  0  0  0
   -2.0318    0.1916   -0.1937 P   0  0  0  0  0  0  0  0  0  0  0  0
   -0.9123    0.6938   -1.7341 S   0  0  0  0  0  0  0  0  0  0  0  0
   -3.3461    1.0819   -0.0959 O   0  0  0  0  0  0  0  0  0  0  0  0
   -3.3379    2.4975   -0.3379 C   0  0  0  0  0  0  0  0  0  0  0  0
   -2.5623    3.2490    0.7252 C   0  0  0  0  0  0  0  0  0  0  0  0
   -2.6038   -1.2822   -0.2158 O   0  0  0  0  0  0  0  0  0  0  0  0
   -2.8623   -1.9974   -1.4424 C   0  0  0  0  0  0  0  0  0  0  0  0
   -4.0563   -1.4275   -2.1783 C   0  0  0  0  0  0  0  0  0  0  0  0
    3.5506    1.1187   -3.9720 H   0  0  0  0  0  0  0  0  0  0  0  0
    4.4608    1.2927   -2.4624 H   0  0  0  0  0  0  0  0  0  0  0  0
    4.2603   -0.3064   -3.1934 H   0  0  0  0  0  0  0  0  0  0  0  0
    1.7900   -0.1784   -2.7818 H   0  0  0  0  0  0  0  0  0  0  0  0
    2.0066    1.4131   -2.0263 H   0  0  0  0  0  0  0  0  0  0  0  0
    3.6727   -2.1476    0.3543 H   0  0  0  0  0  0  0  0  0  0  0  0
    4.8602   -1.4446    1.4847 H   0  0  0  0  0  0  0  0  0  0  0  0
    3.4028   -2.1862    3.4032 H   0  0  0  0  0  0  0  0  0  0  0  0
    2.3287   -2.9963    2.2504 H   0  0  0  0  0  0  0  0  0  0  0  0
    3.9994   -3.5438    2.4374 H   0  0  0  0  0  0  0  0  0  0  0  0
    0.4780   -1.0234    2.6326 H   0  0  0  0  0  0  0  0  0  0  0  0
   -0.8428   -2.1051    2.0657 H   0  0  0  0  0  0  0  0  0  0  0  0
   -2.9045    2.6787   -1.3274 H   0  0  0  0  0  0  0  0  0  0  0  0
   -4.3938    2.7710   -0.3373 H   0  0  0  0  0  0  0  0  0  0  0  0
   -1.5043    2.9852    0.6769 H   0  0  0  0  0  0  0  0  0  0  0  0
   -2.6608    4.3171    0.5601 H   0  0  0  0  0  0  0  0  0  0  0  0
   -2.9361    2.9987    1.7151 H   0  0  0  0  0  0  0  0  0  0  0  0
   -1.9633   -1.9520   -2.0655 H   0  0  0  0  0  0  0  0  0  0  0  0
   -3.0362   -3.0227   -1.1142 H   0  0  0  0  0  0  0  0  0  0  0  0
   -3.8328   -0.4161   -2.5158 H   0  0  0  0  0  0  0  0  0  0  0  0
   -4.2782   -2.0472   -3.0414 H   0  0  0  0  0  0  0  0  0  0  0  0
   -4.9214   -1.3945   -1.5213 H   0  0  0  0  0  0  0  0  0  0  0  0
  1  2  1  0  0  0  0
  2  3  1  0  0  0  0
  3  4  2  0  0  0  0
  4  5  2  0  0  0  0
  4  6  2  0  0  0  0
  6  7  1  0  0  0  0
  7  8  1  0  0  0  0
  4  9  1  0  0  0  0
  9 10  1  0  0  0  0
 10 11  1  0  0  0  0
 11 12  1  0  0  0  0
 12 13  2  0  0  0  0
 12 14  2  0  0  0  0
 14 15  1  0  0  0  0
 15 16  1  0  0  0  0
 12 17  2  0  0  0  0
 17 18  1  0  0  0  0
 18 19  1  0  0  0  0
  1 20  1  0  0  0  0
  1 21  1  0  0  0  0
  1 22  1  0  0  0  0
  2 23  1  0  0  0  0
  2 24  1  0  0  0  0
  7 25  1  0  0  0  0
  7 26  1  0  0  0  0
  8 27  1  0  0  0  0
  8 28  1  0  0  0  0
  8 29  1  0  0  0  0
 10 30  1  0  0  0  0
 10 31  1  0  0  0  0
 15 32  1  0  0  0  0
 15 33  1  0  0  0  0
 16 34  1  0  0  0  0
 16 35  1  0  0  0  0
 16 36  1  0  0  0  0
 18 37  1  0  0  0  0
 18 38  1  0  0  0  0
 19 39  1  0  0  0  0
 19 40  1  0  0  0  0
 19 41  1  0  0  0  0
M  END
