 xtb: 6.7.1 (edcfbbe)
          04092505203D

 41 40  0     0  0            999 V2000
    4.5273   -1.5373   -0.7641 C   0  0  0  0  0  0  0  0  0  0  0  0
    4.5756   -0.0894   -0.3203 C   0  0  0  0  0  0  0  0  0  0  0  0
    3.4324    0.2797    0.4683 O   0  0  0  0  0  0  0  0  0  0  0  0
    1.9623    0.3552   -0.1367 P   0  0  0  0  0  0  0  0  0  0  0  0
    1.8789    1.0385   -1.9765 S   0  0  0  0  0  0  0  0  0  0  0  0
    1.2222    1.1811    0.9972 O   0  0  0  0  0  0  0  0  0  0  0  0
    1.1767    2.6223    0.9964 C   0  0  0  0  0  0  0  0  0  0  0  0
    2.5525    3.2465    1.0861 C   0  0  0  0  0  0  0  0  0  0  0  0
    1.1961   -1.5751    0.2298 S   0  0  0  0  0  0  0  0  0  0  0  0
    0.0928   -1.7700   -1.2103 C   0  0  0  0  0  0  0  0  0  0  0  0
   -1.6140   -2.1605   -0.7488 S   0  0  0  0  0  0  0  0  0  0  0  0
   -2.1421   -0.3289    0.1227 P   0  0  0  0  0  0  0  0  0  0  0  0
   -1.5597    1.3294   -0.7623 S   0  0  0  0  0  0  0  0  0  0  0  0
   -1.6018   -0.5625    1.5917 O   0  0  0  0  0  0  0  0  0  0  0  0
   -1.7200    0.4509    2.6153 C   0  0  0  0  0  0  0  0  0  0  0  0
   -0.6622    0.1802    3.6649 C   0  0  0  0  0  0  0  0  0  0  0  0
   -3.7143   -0.4092    0.3487 O   0  0  0  0  0  0  0  0  0  0  0  0
   -4.6617    0.0349   -0.6385 C   0  0  0  0  0  0  0  0  0  0  0  0
   -4.6513   -0.8452   -1.8712 C   0  0  0  0  0  0  0  0  0  0  0  0
    4.3607   -2.1896    0.0893 H   0  0  0  0  0  0  0  0  0  0  0  0
    3.7178   -1.6787   -1.4789 H   0  0  0  0  0  0  0  0  0  0  0  0
    5.4669   -1.7971   -1.2410 H   0  0  0  0  0  0  0  0  0  0  0  0
    4.6232    0.5746   -1.1895 H   0  0  0  0  0  0  0  0  0  0  0  0
    5.4216    0.1016    0.3413 H   0  0  0  0  0  0  0  0  0  0  0  0
    0.6556    2.9476    0.0895 H   0  0  0  0  0  0  0  0  0  0  0  0
    0.5687    2.8629    1.8702 H   0  0  0  0  0  0  0  0  0  0  0  0
    2.4488    4.3216    1.1951 H   0  0  0  0  0  0  0  0  0  0  0  0
    3.0929    2.8436    1.9388 H   0  0  0  0  0  0  0  0  0  0  0  0
    3.1161    3.0372    0.1776 H   0  0  0  0  0  0  0  0  0  0  0  0
    0.4386   -2.6206   -1.7919 H   0  0  0  0  0  0  0  0  0  0  0  0
    0.1231   -0.8507   -1.8021 H   0  0  0  0  0  0  0  0  0  0  0  0
   -1.5866    1.4334    2.1487 H   0  0  0  0  0  0  0  0  0  0  0  0
   -2.7283    0.3859    3.0312 H   0  0  0  0  0  0  0  0  0  0  0  0
    0.3278    0.2482    3.2210 H   0  0  0  0  0  0  0  0  0  0  0  0
   -0.7530    0.9112    4.4618 H   0  0  0  0  0  0  0  0  0  0  0  0
   -0.7942   -0.8183    4.0712 H   0  0  0  0  0  0  0  0  0  0  0  0
   -5.6195   -0.0075   -0.1185 H   0  0  0  0  0  0  0  0  0  0  0  0
   -4.4248    1.0708   -0.9021 H   0  0  0  0  0  0  0  0  0  0  0  0
   -5.4607   -0.5497   -2.5310 H   0  0  0  0  0  0  0  0  0  0  0  0
   -3.7058   -0.7326   -2.4004 H   0  0  0  0  0  0  0  0  0  0  0  0
   -4.7729   -1.8885   -1.5915 H   0  0  0  0  0  0  0  0  0  0  0  0
  1  2  1  0  0  0  0
  2  3  1  0  0  0  0
  3  4  2  0  0  0  0
  4  5  2  0  0  0  0
  4  6  2  0  0  0  0
  6  7  1  0  0  0  0
  7  8  1  0  0  0  0
  4  9  1  0  0  0  0
  9 10  1  0  0  0  0
 10 11  1  0  0  0  0
 11 12  1  0  0  0  0
 12 13  2  0  0  0  0
 12 14  2  0  0  0  0
 14 15  1  0  0  0  0
 15 16  1  0  0  0  0
 12 17  2  0  0  0  0
 17 18  1  0  0  0  0
 18 19  1  0  0  0  0
  1 20  1  0  0  0  0
  1 21  1  0  0  0  0
  1 22  1  0  0  0  0
  2 23  1  0  0  0  0
  2 24  1  0  0  0  0
  7 25  1  0  0  0  0
  7 26  1  0  0  0  0
  8 27  1  0  0  0  0
  8 28  1  0  0  0  0
  8 29  1  0  0  0  0
 10 30  1  0  0  0  0
 10 31  1  0  0  0  0
 15 32  1  0  0  0  0
 15 33  1  0  0  0  0
 16 34  1  0  0  0  0
 16 35  1  0  0  0  0
 16 36  1  0  0  0  0
 18 37  1  0  0  0  0
 18 38  1  0  0  0  0
 19 39  1  0  0  0  0
 19 40  1  0  0  0  0
 19 41  1  0  0  0  0
M  END
