 xtb: 6.7.1 (edcfbbe)
          04092505213D

 41 40  0     0  0            999 V2000
    1.9658   -1.4329   -2.8721 C   0  0  0  0  0  0  0  0  0  0  0  0
    2.6371   -0.1637   -2.3868 C   0  0  0  0  0  0  0  0  0  0  0  0
    3.1945   -0.3534   -1.0722 O   0  0  0  0  0  0  0  0  0  0  0  0
    2.5259    0.1203    0.2879 P   0  0  0  0  0  0  0  0  0  0  0  0
    2.1513    2.0307    0.4871 S   0  0  0  0  0  0  0  0  0  0  0  0
    3.6274   -0.3152    1.3274 O   0  0  0  0  0  0  0  0  0  0  0  0
    4.1072   -1.6802    1.4595 C   0  0  0  0  0  0  0  0  0  0  0  0
    3.6281   -2.2741    2.7690 C   0  0  0  0  0  0  0  0  0  0  0  0
    0.8969   -1.2105    0.5968 S   0  0  0  0  0  0  0  0  0  0  0  0
   -0.1306   -0.1181    1.6366 C   0  0  0  0  0  0  0  0  0  0  0  0
   -1.8901   -0.4183    1.3997 S   0  0  0  0  0  0  0  0  0  0  0  0
   -2.2046    0.6188   -0.4430 P   0  0  0  0  0  0  0  0  0  0  0  0
   -0.6667    0.9439   -1.6106 S   0  0  0  0  0  0  0  0  0  0  0  0
   -2.8307    2.0171   -0.0714 O   0  0  0  0  0  0  0  0  0  0  0  0
   -3.7655    2.3025    0.9979 C   0  0  0  0  0  0  0  0  0  0  0  0
   -4.9869    1.4087    0.9883 C   0  0  0  0  0  0  0  0  0  0  0  0
   -3.4284   -0.1482   -1.0984 O   0  0  0  0  0  0  0  0  0  0  0  0
   -3.5206   -1.5743   -1.2824 C   0  0  0  0  0  0  0  0  0  0  0  0
   -2.2702   -2.1775   -1.8870 C   0  0  0  0  0  0  0  0  0  0  0  0
    1.6415   -1.2863   -3.8969 H   0  0  0  0  0  0  0  0  0  0  0  0
    2.6614   -2.2658   -2.8264 H   0  0  0  0  0  0  0  0  0  0  0  0
    1.0958   -1.6572   -2.2603 H   0  0  0  0  0  0  0  0  0  0  0  0
    1.9318    0.6723   -2.3678 H   0  0  0  0  0  0  0  0  0  0  0  0
    3.4927    0.0985   -3.0121 H   0  0  0  0  0  0  0  0  0  0  0  0
    3.7625   -2.2664    0.6053 H   0  0  0  0  0  0  0  0  0  0  0  0
    5.1945   -1.5975    1.4328 H   0  0  0  0  0  0  0  0  0  0  0  0
    2.5481   -2.3988    2.7589 H   0  0  0  0  0  0  0  0  0  0  0  0
    4.0945   -3.2441    2.9085 H   0  0  0  0  0  0  0  0  0  0  0  0
    3.9025   -1.6222    3.5937 H   0  0  0  0  0  0  0  0  0  0  0  0
    0.1165    0.9164    1.3817 H   0  0  0  0  0  0  0  0  0  0  0  0
    0.0714   -0.3255    2.6846 H   0  0  0  0  0  0  0  0  0  0  0  0
   -3.2284    2.2150    1.9461 H   0  0  0  0  0  0  0  0  0  0  0  0
   -4.0294    3.3464    0.8207 H   0  0  0  0  0  0  0  0  0  0  0  0
   -5.4568    1.4234    0.0084 H   0  0  0  0  0  0  0  0  0  0  0  0
   -4.7110    0.3858    1.2367 H   0  0  0  0  0  0  0  0  0  0  0  0
   -5.6916    1.7727    1.7299 H   0  0  0  0  0  0  0  0  0  0  0  0
   -3.7342   -2.0256   -0.3096 H   0  0  0  0  0  0  0  0  0  0  0  0
   -4.3803   -1.6923   -1.9441 H   0  0  0  0  0  0  0  0  0  0  0  0
   -2.0138   -1.6690   -2.8136 H   0  0  0  0  0  0  0  0  0  0  0  0
   -1.4325   -2.0809   -1.1962 H   0  0  0  0  0  0  0  0  0  0  0  0
   -2.4386   -3.2305   -2.0881 H   0  0  0  0  0  0  0  0  0  0  0  0
  1  2  1  0  0  0  0
  2  3  1  0  0  0  0
  3  4  2  0  0  0  0
  4  5  2  0  0  0  0
  4  6  2  0  0  0  0
  6  7  1  0  0  0  0
  7  8  1  0  0  0  0
  4  9  1  0  0  0  0
  9 10  1  0  0  0  0
 10 11  1  0  0  0  0
 11 12  1  0  0  0  0
 12 13  2  0  0  0  0
 12 14  2  0  0  0  0
 14 15  1  0  0  0  0
 15 16  1  0  0  0  0
 12 17  2  0  0  0  0
 17 18  1  0  0  0  0
 18 19  1  0  0  0  0
  1 20  1  0  0  0  0
  1 21  1  0  0  0  0
  1 22  1  0  0  0  0
  2 23  1  0  0  0  0
  2 24  1  0  0  0  0
  7 25  1  0  0  0  0
  7 26  1  0  0  0  0
  8 27  1  0  0  0  0
  8 28  1  0  0  0  0
  8 29  1  0  0  0  0
 10 30  1  0  0  0  0
 10 31  1  0  0  0  0
 15 32  1  0  0  0  0
 15 33  1  0  0  0  0
 16 34  1  0  0  0  0
 16 35  1  0  0  0  0
 16 36  1  0  0  0  0
 18 37  1  0  0  0  0
 18 38  1  0  0  0  0
 19 39  1  0  0  0  0
 19 40  1  0  0  0  0
 19 41  1  0  0  0  0
M  END
