 xtb: 6.7.1 (edcfbbe)
          04092505203D

 41 40  0     0  0            999 V2000
    4.1171   -1.5595   -2.2231 C   0  0  0  0  0  0  0  0  0  0  0  0
    4.4381   -1.5172   -0.7430 C   0  0  0  0  0  0  0  0  0  0  0  0
    3.2515   -1.4990    0.0685 O   0  0  0  0  0  0  0  0  0  0  0  0
    2.2615   -0.2579    0.1065 P   0  0  0  0  0  0  0  0  0  0  0  0
    3.1225    1.5079    0.0708 S   0  0  0  0  0  0  0  0  0  0  0  0
    1.3896   -0.5846    1.3901 O   0  0  0  0  0  0  0  0  0  0  0  0
    1.7151   -0.0564    2.6928 C   0  0  0  0  0  0  0  0  0  0  0  0
    2.9993   -0.6485    3.2338 C   0  0  0  0  0  0  0  0  0  0  0  0
    0.8387   -0.6671   -1.4010 S   0  0  0  0  0  0  0  0  0  0  0  0
    0.1048    0.9922   -1.4280 C   0  0  0  0  0  0  0  0  0  0  0  0
   -0.8060    1.3963    0.0778 S   0  0  0  0  0  0  0  0  0  0  0  0
   -2.6585    0.4185   -0.3764 P   0  0  0  0  0  0  0  0  0  0  0  0
   -2.9188    0.0234   -2.2763 S   0  0  0  0  0  0  0  0  0  0  0  0
   -3.8047    1.3718    0.1252 O   0  0  0  0  0  0  0  0  0  0  0  0
   -4.1830    1.6070    1.5037 C   0  0  0  0  0  0  0  0  0  0  0  0
   -3.0749    2.2526    2.3079 C   0  0  0  0  0  0  0  0  0  0  0  0
   -2.7786   -0.7745    0.6740 O   0  0  0  0  0  0  0  0  0  0  0  0
   -1.8657   -1.8744    0.8175 C   0  0  0  0  0  0  0  0  0  0  0  0
   -1.9540   -2.8564   -0.3331 C   0  0  0  0  0  0  0  0  0  0  0  0
    3.4347   -2.3778   -2.4391 H   0  0  0  0  0  0  0  0  0  0  0  0
    3.6499   -0.6248   -2.5310 H   0  0  0  0  0  0  0  0  0  0  0  0
    5.0343   -1.6954   -2.7871 H   0  0  0  0  0  0  0  0  0  0  0  0
    5.0340   -0.6300   -0.5051 H   0  0  0  0  0  0  0  0  0  0  0  0
    4.9637   -2.4164   -0.4190 H   0  0  0  0  0  0  0  0  0  0  0  0
    1.7899    1.0328    2.6143 H   0  0  0  0  0  0  0  0  0  0  0  0
    0.8550   -0.3248    3.3074 H   0  0  0  0  0  0  0  0  0  0  0  0
    3.1540   -0.3048    4.2517 H   0  0  0  0  0  0  0  0  0  0  0  0
    2.9478   -1.7340    3.2198 H   0  0  0  0  0  0  0  0  0  0  0  0
    3.8410   -0.3280    2.6210 H   0  0  0  0  0  0  0  0  0  0  0  0
   -0.5763    1.0173   -2.2799 H   0  0  0  0  0  0  0  0  0  0  0  0
    0.8971    1.7341   -1.5227 H   0  0  0  0  0  0  0  0  0  0  0  0
   -5.0485    2.2651    1.4128 H   0  0  0  0  0  0  0  0  0  0  0  0
   -4.4841    0.6540    1.9421 H   0  0  0  0  0  0  0  0  0  0  0  0
   -2.7392    3.1677    1.8265 H   0  0  0  0  0  0  0  0  0  0  0  0
   -3.4461    2.4859    3.3010 H   0  0  0  0  0  0  0  0  0  0  0  0
   -2.2262    1.5764    2.3970 H   0  0  0  0  0  0  0  0  0  0  0  0
   -0.8481   -1.4849    0.9194 H   0  0  0  0  0  0  0  0  0  0  0  0
   -2.1722   -2.3400    1.7565 H   0  0  0  0  0  0  0  0  0  0  0  0
   -2.9800   -3.1905   -0.4644 H   0  0  0  0  0  0  0  0  0  0  0  0
   -1.6189   -2.3928   -1.2591 H   0  0  0  0  0  0  0  0  0  0  0  0
   -1.3197   -3.7111   -0.1212 H   0  0  0  0  0  0  0  0  0  0  0  0
  1  2  1  0  0  0  0
  2  3  1  0  0  0  0
  3  4  2  0  0  0  0
  4  5  2  0  0  0  0
  4  6  2  0  0  0  0
  6  7  1  0  0  0  0
  7  8  1  0  0  0  0
  4  9  1  0  0  0  0
  9 10  1  0  0  0  0
 10 11  1  0  0  0  0
 11 12  1  0  0  0  0
 12 13  2  0  0  0  0
 12 14  2  0  0  0  0
 14 15  1  0  0  0  0
 15 16  1  0  0  0  0
 12 17  2  0  0  0  0
 17 18  1  0  0  0  0
 18 19  1  0  0  0  0
  1 20  1  0  0  0  0
  1 21  1  0  0  0  0
  1 22  1  0  0  0  0
  2 23  1  0  0  0  0
  2 24  1  0  0  0  0
  7 25  1  0  0  0  0
  7 26  1  0  0  0  0
  8 27  1  0  0  0  0
  8 28  1  0  0  0  0
  8 29  1  0  0  0  0
 10 30  1  0  0  0  0
 10 31  1  0  0  0  0
 15 32  1  0  0  0  0
 15 33  1  0  0  0  0
 16 34  1  0  0  0  0
 16 35  1  0  0  0  0
 16 36  1  0  0  0  0
 18 37  1  0  0  0  0
 18 38  1  0  0  0  0
 19 39  1  0  0  0  0
 19 40  1  0  0  0  0
 19 41  1  0  0  0  0
M  END
