 xtb: 6.7.1 (edcfbbe)
          04092505213D

 41 40  0     0  0            999 V2000
    2.8054   -3.1047    0.8705 C   0  0  0  0  0  0  0  0  0  0  0  0
    1.6267   -2.8407   -0.0411 C   0  0  0  0  0  0  0  0  0  0  0  0
    1.2457   -1.4461   -0.0400 O   0  0  0  0  0  0  0  0  0  0  0  0
    2.1913   -0.3296   -0.6416 P   0  0  0  0  0  0  0  0  0  0  0  0
    3.1915   -0.8117   -2.2543 S   0  0  0  0  0  0  0  0  0  0  0  0
    3.0824    0.0737    0.6177 O   0  0  0  0  0  0  0  0  0  0  0  0
    4.2689    0.8802    0.4883 C   0  0  0  0  0  0  0  0  0  0  0  0
    5.1486    0.6100    1.6928 C   0  0  0  0  0  0  0  0  0  0  0  0
    0.8226    1.2689   -0.8559 S   0  0  0  0  0  0  0  0  0  0  0  0
    0.3192    1.4569    0.8864 C   0  0  0  0  0  0  0  0  0  0  0  0
   -0.8331    0.1924    1.4604 S   0  0  0  0  0  0  0  0  0  0  0  0
   -2.3902    0.6295    0.0740 P   0  0  0  0  0  0  0  0  0  0  0  0
   -2.6089    2.5108   -0.4122 S   0  0  0  0  0  0  0  0  0  0  0  0
   -3.6315   -0.1426    0.6978 O   0  0  0  0  0  0  0  0  0  0  0  0
   -4.0742   -0.0314    2.0652 C   0  0  0  0  0  0  0  0  0  0  0  0
   -4.3126    1.4011    2.4926 C   0  0  0  0  0  0  0  0  0  0  0  0
   -2.1036   -0.2209   -1.2259 O   0  0  0  0  0  0  0  0  0  0  0  0
   -1.9451   -1.6580   -1.2242 C   0  0  0  0  0  0  0  0  0  0  0  0
   -3.2227   -2.3373   -1.6720 C   0  0  0  0  0  0  0  0  0  0  0  0
    2.9810   -4.1744    0.9287 H   0  0  0  0  0  0  0  0  0  0  0  0
    3.6958   -2.6220    0.4705 H   0  0  0  0  0  0  0  0  0  0  0  0
    2.6054   -2.7141    1.8646 H   0  0  0  0  0  0  0  0  0  0  0  0
    0.7275   -3.3551    0.3002 H   0  0  0  0  0  0  0  0  0  0  0  0
    1.8593   -3.1329   -1.0700 H   0  0  0  0  0  0  0  0  0  0  0  0
    4.7728    0.6131   -0.4467 H   0  0  0  0  0  0  0  0  0  0  0  0
    3.9691    1.9309    0.4396 H   0  0  0  0  0  0  0  0  0  0  0  0
    4.6093    0.8384    2.6074 H   0  0  0  0  0  0  0  0  0  0  0  0
    5.4487   -0.4336    1.7124 H   0  0  0  0  0  0  0  0  0  0  0  0
    6.0336    1.2348    1.6325 H   0  0  0  0  0  0  0  0  0  0  0  0
   -0.1660    2.4317    0.9358 H   0  0  0  0  0  0  0  0  0  0  0  0
    1.1901    1.4051    1.5343 H   0  0  0  0  0  0  0  0  0  0  0  0
   -4.9987   -0.6112    2.0830 H   0  0  0  0  0  0  0  0  0  0  0  0
   -3.3240   -0.5055    2.7040 H   0  0  0  0  0  0  0  0  0  0  0  0
   -3.3764    1.9571    2.4846 H   0  0  0  0  0  0  0  0  0  0  0  0
   -5.0053    1.8905    1.8121 H   0  0  0  0  0  0  0  0  0  0  0  0
   -4.7243    1.4135    3.4966 H   0  0  0  0  0  0  0  0  0  0  0  0
   -1.1257   -1.8473   -1.9223 H   0  0  0  0  0  0  0  0  0  0  0  0
   -1.6522   -1.9819   -0.2211 H   0  0  0  0  0  0  0  0  0  0  0  0
   -3.0599   -3.4097   -1.7149 H   0  0  0  0  0  0  0  0  0  0  0  0
   -4.0268   -2.1203   -0.9739 H   0  0  0  0  0  0  0  0  0  0  0  0
   -3.5080   -1.9771   -2.6565 H   0  0  0  0  0  0  0  0  0  0  0  0
  1  2  1  0  0  0  0
  2  3  1  0  0  0  0
  3  4  2  0  0  0  0
  4  5  2  0  0  0  0
  4  6  2  0  0  0  0
  6  7  1  0  0  0  0
  7  8  1  0  0  0  0
  4  9  1  0  0  0  0
  9 10  1  0  0  0  0
 10 11  1  0  0  0  0
 11 12  1  0  0  0  0
 12 13  2  0  0  0  0
 12 14  2  0  0  0  0
 14 15  1  0  0  0  0
 15 16  1  0  0  0  0
 12 17  2  0  0  0  0
 17 18  1  0  0  0  0
 18 19  1  0  0  0  0
  1 20  1  0  0  0  0
  1 21  1  0  0  0  0
  1 22  1  0  0  0  0
  2 23  1  0  0  0  0
  2 24  1  0  0  0  0
  7 25  1  0  0  0  0
  7 26  1  0  0  0  0
  8 27  1  0  0  0  0
  8 28  1  0  0  0  0
  8 29  1  0  0  0  0
 10 30  1  0  0  0  0
 10 31  1  0  0  0  0
 15 32  1  0  0  0  0
 15 33  1  0  0  0  0
 16 34  1  0  0  0  0
 16 35  1  0  0  0  0
 16 36  1  0  0  0  0
 18 37  1  0  0  0  0
 18 38  1  0  0  0  0
 19 39  1  0  0  0  0
 19 40  1  0  0  0  0
 19 41  1  0  0  0  0
M  END
