 xtb: 6.7.1 (edcfbbe)
          04092505213D

 41 40  0     0  0            999 V2000
    4.1230    2.1365   -1.8025 C   0  0  0  0  0  0  0  0  0  0  0  0
    4.0888    0.6243   -1.7042 C   0  0  0  0  0  0  0  0  0  0  0  0
    3.9454    0.2162   -0.3188 O   0  0  0  0  0  0  0  0  0  0  0  0
    2.6246   -0.3580    0.3099 P   0  0  0  0  0  0  0  0  0  0  0  0
    2.8859   -0.7171    2.2125 S   0  0  0  0  0  0  0  0  0  0  0  0
    2.3536   -1.5900   -0.6636 O   0  0  0  0  0  0  0  0  0  0  0  0
    1.1641   -2.3911   -0.7307 C   0  0  0  0  0  0  0  0  0  0  0  0
    0.9325   -3.2014    0.5284 C   0  0  0  0  0  0  0  0  0  0  0  0
    1.0956    1.0710   -0.1565 S   0  0  0  0  0  0  0  0  0  0  0  0
    0.2247    1.0872    1.4255 C   0  0  0  0  0  0  0  0  0  0  0  0
   -1.0520   -0.1934    1.5825 S   0  0  0  0  0  0  0  0  0  0  0  0
   -2.2598    0.3292   -0.0900 P   0  0  0  0  0  0  0  0  0  0  0  0
   -1.7570   -0.3078   -1.8809 S   0  0  0  0  0  0  0  0  0  0  0  0
   -2.2923    1.9068    0.0543 O   0  0  0  0  0  0  0  0  0  0  0  0
   -2.5127    2.7706   -1.0781 C   0  0  0  0  0  0  0  0  0  0  0  0
   -3.9640    2.7401   -1.5075 C   0  0  0  0  0  0  0  0  0  0  0  0
   -3.7239   -0.0702    0.3800 O   0  0  0  0  0  0  0  0  0  0  0  0
   -4.0986   -1.3257    0.9746 C   0  0  0  0  0  0  0  0  0  0  0  0
   -3.5289   -2.5210    0.2390 C   0  0  0  0  0  0  0  0  0  0  0  0
    4.9002    2.5320   -1.1545 H   0  0  0  0  0  0  0  0  0  0  0  0
    4.3328    2.4195   -2.8291 H   0  0  0  0  0  0  0  0  0  0  0  0
    3.1667    2.5605   -1.5056 H   0  0  0  0  0  0  0  0  0  0  0  0
    5.0347    0.1846   -2.0245 H   0  0  0  0  0  0  0  0  0  0  0  0
    3.2710    0.2029   -2.2921 H   0  0  0  0  0  0  0  0  0  0  0  0
    0.3102   -1.7410   -0.9488 H   0  0  0  0  0  0  0  0  0  0  0  0
    1.3414   -3.0394   -1.5910 H   0  0  0  0  0  0  0  0  0  0  0  0
    0.6995   -2.5512    1.3701 H   0  0  0  0  0  0  0  0  0  0  0  0
    0.1013   -3.8804    0.3659 H   0  0  0  0  0  0  0  0  0  0  0  0
    1.8230   -3.7756    0.7719 H   0  0  0  0  0  0  0  0  0  0  0  0
   -0.2353    2.0658    1.5288 H   0  0  0  0  0  0  0  0  0  0  0  0
    0.9390    0.8900    2.2285 H   0  0  0  0  0  0  0  0  0  0  0  0
   -2.2108    3.7575   -0.7255 H   0  0  0  0  0  0  0  0  0  0  0  0
   -1.8576    2.4514   -1.8955 H   0  0  0  0  0  0  0  0  0  0  0  0
   -4.6084    3.0128   -0.6762 H   0  0  0  0  0  0  0  0  0  0  0  0
   -4.1146    3.4340   -2.3284 H   0  0  0  0  0  0  0  0  0  0  0  0
   -4.2246    1.7348   -1.8371 H   0  0  0  0  0  0  0  0  0  0  0  0
   -3.7619   -1.3188    2.0153 H   0  0  0  0  0  0  0  0  0  0  0  0
   -5.1894   -1.3148    0.9376 H   0  0  0  0  0  0  0  0  0  0  0  0
   -2.4406   -2.5088    0.3003 H   0  0  0  0  0  0  0  0  0  0  0  0
   -3.8981   -3.4345    0.6940 H   0  0  0  0  0  0  0  0  0  0  0  0
   -3.8178   -2.4970   -0.8092 H   0  0  0  0  0  0  0  0  0  0  0  0
  1  2  1  0  0  0  0
  2  3  1  0  0  0  0
  3  4  2  0  0  0  0
  4  5  2  0  0  0  0
  4  6  2  0  0  0  0
  6  7  1  0  0  0  0
  7  8  1  0  0  0  0
  4  9  1  0  0  0  0
  9 10  1  0  0  0  0
 10 11  1  0  0  0  0
 11 12  1  0  0  0  0
 12 13  2  0  0  0  0
 12 14  2  0  0  0  0
 14 15  1  0  0  0  0
 15 16  1  0  0  0  0
 12 17  2  0  0  0  0
 17 18  1  0  0  0  0
 18 19  1  0  0  0  0
  1 20  1  0  0  0  0
  1 21  1  0  0  0  0
  1 22  1  0  0  0  0
  2 23  1  0  0  0  0
  2 24  1  0  0  0  0
  7 25  1  0  0  0  0
  7 26  1  0  0  0  0
  8 27  1  0  0  0  0
  8 28  1  0  0  0  0
  8 29  1  0  0  0  0
 10 30  1  0  0  0  0
 10 31  1  0  0  0  0
 15 32  1  0  0  0  0
 15 33  1  0  0  0  0
 16 34  1  0  0  0  0
 16 35  1  0  0  0  0
 16 36  1  0  0  0  0
 18 37  1  0  0  0  0
 18 38  1  0  0  0  0
 19 39  1  0  0  0  0
 19 40  1  0  0  0  0
 19 41  1  0  0  0  0
M  END
