 xtb: 6.7.1 (edcfbbe)
          04092505213D

 41 40  0     0  0            999 V2000
    4.8426   -2.5522   -1.6203 C   0  0  0  0  0  0  0  0  0  0  0  0
    3.9181   -2.0293   -0.5416 C   0  0  0  0  0  0  0  0  0  0  0  0
    3.8877   -0.5794   -0.6469 O   0  0  0  0  0  0  0  0  0  0  0  0
    2.6841    0.2804   -0.1208 P   0  0  0  0  0  0  0  0  0  0  0  0
    2.9404    2.1994   -0.3910 S   0  0  0  0  0  0  0  0  0  0  0  0
    2.6101   -0.1876    1.4007 O   0  0  0  0  0  0  0  0  0  0  0  0
    1.7633    0.4321    2.3885 C   0  0  0  0  0  0  0  0  0  0  0  0
    0.6213   -0.4944    2.7584 C   0  0  0  0  0  0  0  0  0  0  0  0
    0.9806   -0.5758   -1.1077 S   0  0  0  0  0  0  0  0  0  0  0  0
    0.0702    0.9527   -1.4125 C   0  0  0  0  0  0  0  0  0  0  0  0
   -0.8916    1.5094    0.0174 S   0  0  0  0  0  0  0  0  0  0  0  0
   -2.4994    0.1670   -0.2753 P   0  0  0  0  0  0  0  0  0  0  0  0
   -3.1887    0.0254   -2.0988 S   0  0  0  0  0  0  0  0  0  0  0  0
   -3.6227    0.6166    0.7437 O   0  0  0  0  0  0  0  0  0  0  0  0
   -3.4387    0.6447    2.1823 C   0  0  0  0  0  0  0  0  0  0  0  0
   -3.0631    2.0343    2.6552 C   0  0  0  0  0  0  0  0  0  0  0  0
   -1.8400   -1.1678    0.3132 O   0  0  0  0  0  0  0  0  0  0  0  0
   -2.2243   -2.4766   -0.1478 C   0  0  0  0  0  0  0  0  0  0  0  0
   -3.5818   -2.8720    0.3964 C   0  0  0  0  0  0  0  0  0  0  0  0
    4.9108   -3.6322   -1.5390 H   0  0  0  0  0  0  0  0  0  0  0  0
    4.4597   -2.2891   -2.6024 H   0  0  0  0  0  0  0  0  0  0  0  0
    5.8317   -2.1184   -1.5038 H   0  0  0  0  0  0  0  0  0  0  0  0
    4.2797   -2.2777    0.4576 H   0  0  0  0  0  0  0  0  0  0  0  0
    2.9007   -2.4097   -0.6681 H   0  0  0  0  0  0  0  0  0  0  0  0
    2.4137    0.6169    3.2458 H   0  0  0  0  0  0  0  0  0  0  0  0
    1.3974    1.3894    2.0032 H   0  0  0  0  0  0  0  0  0  0  0  0
   -0.0156   -0.6781    1.8966 H   0  0  0  0  0  0  0  0  0  0  0  0
    1.0133   -1.4434    3.1128 H   0  0  0  0  0  0  0  0  0  0  0  0
    0.0335   -0.0306    3.5441 H   0  0  0  0  0  0  0  0  0  0  0  0
   -0.6095    0.7641   -2.2445 H   0  0  0  0  0  0  0  0  0  0  0  0
    0.7767    1.7505   -1.6456 H   0  0  0  0  0  0  0  0  0  0  0  0
   -4.4092    0.3425    2.5797 H   0  0  0  0  0  0  0  0  0  0  0  0
   -2.6776   -0.0886    2.4578 H   0  0  0  0  0  0  0  0  0  0  0  0
   -3.8053    2.7544    2.3220 H   0  0  0  0  0  0  0  0  0  0  0  0
   -3.0211    2.0405    3.7398 H   0  0  0  0  0  0  0  0  0  0  0  0
   -2.0929    2.3266    2.2584 H   0  0  0  0  0  0  0  0  0  0  0  0
   -2.2315   -2.4726   -1.2420 H   0  0  0  0  0  0  0  0  0  0  0  0
   -1.4299   -3.1309    0.2131 H   0  0  0  0  0  0  0  0  0  0  0  0
   -3.5778   -2.8519    1.4830 H   0  0  0  0  0  0  0  0  0  0  0  0
   -4.3388   -2.1783    0.0305 H   0  0  0  0  0  0  0  0  0  0  0  0
   -3.8287   -3.8727    0.0562 H   0  0  0  0  0  0  0  0  0  0  0  0
  1  2  1  0  0  0  0
  2  3  1  0  0  0  0
  3  4  2  0  0  0  0
  4  5  2  0  0  0  0
  4  6  2  0  0  0  0
  6  7  1  0  0  0  0
  7  8  1  0  0  0  0
  4  9  1  0  0  0  0
  9 10  1  0  0  0  0
 10 11  1  0  0  0  0
 11 12  1  0  0  0  0
 12 13  2  0  0  0  0
 12 14  2  0  0  0  0
 14 15  1  0  0  0  0
 15 16  1  0  0  0  0
 12 17  1  0  0  0  0
 17 18  1  0  0  0  0
 18 19  1  0  0  0  0
  1 20  1  0  0  0  0
  1 21  1  0  0  0  0
  1 22  1  0  0  0  0
  2 23  1  0  0  0  0
  2 24  1  0  0  0  0
  7 25  1  0  0  0  0
  7 26  1  0  0  0  0
  8 27  1  0  0  0  0
  8 28  1  0  0  0  0
  8 29  1  0  0  0  0
 10 30  1  0  0  0  0
 10 31  1  0  0  0  0
 15 32  1  0  0  0  0
 15 33  1  0  0  0  0
 16 34  1  0  0  0  0
 16 35  1  0  0  0  0
 16 36  1  0  0  0  0
 18 37  1  0  0  0  0
 18 38  1  0  0  0  0
 19 39  1  0  0  0  0
 19 40  1  0  0  0  0
 19 41  1  0  0  0  0
M  END
