 xtb: 6.7.1 (edcfbbe)
          04092505203D

 41 40  0     0  0            999 V2000
    1.6214   -2.2442    1.5687 C   0  0  0  0  0  0  0  0  0  0  0  0
    3.0712   -1.9530    1.2402 C   0  0  0  0  0  0  0  0  0  0  0  0
    3.2961   -0.5572    0.9773 O   0  0  0  0  0  0  0  0  0  0  0  0
    2.8206    0.1546   -0.3644 P   0  0  0  0  0  0  0  0  0  0  0  0
    3.0017   -0.9198   -1.9924 S   0  0  0  0  0  0  0  0  0  0  0  0
    3.7435    1.4330   -0.4000 O   0  0  0  0  0  0  0  0  0  0  0  0
    4.2401    2.1436    0.7605 C   0  0  0  0  0  0  0  0  0  0  0  0
    3.1268    2.6733    1.6384 C   0  0  0  0  0  0  0  0  0  0  0  0
    0.8503    0.9251   -0.0032 S   0  0  0  0  0  0  0  0  0  0  0  0
   -0.0688    0.1107   -1.3308 C   0  0  0  0  0  0  0  0  0  0  0  0
   -1.1859   -1.1809   -0.7372 S   0  0  0  0  0  0  0  0  0  0  0  0
   -2.7156    0.1496   -0.0738 P   0  0  0  0  0  0  0  0  0  0  0  0
   -3.1278    1.6352   -1.2770 S   0  0  0  0  0  0  0  0  0  0  0  0
   -2.2449    0.6577    1.3394 O   0  0  0  0  0  0  0  0  0  0  0  0
   -1.9308   -0.2361    2.4403 C   0  0  0  0  0  0  0  0  0  0  0  0
   -0.9377    0.4699    3.3396 C   0  0  0  0  0  0  0  0  0  0  0  0
   -3.9236   -0.8136    0.3030 O   0  0  0  0  0  0  0  0  0  0  0  0
   -4.9160   -1.2379   -0.6489 C   0  0  0  0  0  0  0  0  0  0  0  0
   -4.3307   -2.1024   -1.7465 C   0  0  0  0  0  0  0  0  0  0  0  0
    1.2773   -1.5915    2.3667 H   0  0  0  0  0  0  0  0  0  0  0  0
    0.9986   -2.0940    0.6877 H   0  0  0  0  0  0  0  0  0  0  0  0
    1.5275   -3.2781    1.8848 H   0  0  0  0  0  0  0  0  0  0  0  0
    3.3941   -2.5285    0.3670 H   0  0  0  0  0  0  0  0  0  0  0  0
    3.7249   -2.1659    2.0874 H   0  0  0  0  0  0  0  0  0  0  0  0
    4.8903    1.4682    1.3198 H   0  0  0  0  0  0  0  0  0  0  0  0
    4.8289    2.9515    0.3236 H   0  0  0  0  0  0  0  0  0  0  0  0
    3.5577    3.2523    2.4492 H   0  0  0  0  0  0  0  0  0  0  0  0
    2.4543    3.3059    1.0644 H   0  0  0  0  0  0  0  0  0  0  0  0
    2.5558    1.8466    2.0572 H   0  0  0  0  0  0  0  0  0  0  0  0
    0.6425   -0.3616   -2.0132 H   0  0  0  0  0  0  0  0  0  0  0  0
   -0.6627    0.8704   -1.8407 H   0  0  0  0  0  0  0  0  0  0  0  0
   -2.8649   -0.4546    2.9605 H   0  0  0  0  0  0  0  0  0  0  0  0
   -1.5191   -1.1639    2.0320 H   0  0  0  0  0  0  0  0  0  0  0  0
   -1.3649    1.3973    3.7092 H   0  0  0  0  0  0  0  0  0  0  0  0
   -0.6941   -0.1746    4.1781 H   0  0  0  0  0  0  0  0  0  0  0  0
   -0.0351    0.7061    2.7818 H   0  0  0  0  0  0  0  0  0  0  0  0
   -5.6355   -1.7893   -0.0420 H   0  0  0  0  0  0  0  0  0  0  0  0
   -5.3902   -0.3473   -1.0725 H   0  0  0  0  0  0  0  0  0  0  0  0
   -5.1356   -2.5006   -2.3559 H   0  0  0  0  0  0  0  0  0  0  0  0
   -3.6730   -1.5082   -2.3794 H   0  0  0  0  0  0  0  0  0  0  0  0
   -3.7598   -2.9233   -1.3198 H   0  0  0  0  0  0  0  0  0  0  0  0
  1  2  1  0  0  0  0
  2  3  1  0  0  0  0
  3  4  2  0  0  0  0
  4  5  2  0  0  0  0
  4  6  2  0  0  0  0
  6  7  1  0  0  0  0
  7  8  1  0  0  0  0
  4  9  1  0  0  0  0
  9 10  1  0  0  0  0
 10 11  1  0  0  0  0
 11 12  1  0  0  0  0
 12 13  2  0  0  0  0
 12 14  2  0  0  0  0
 14 15  1  0  0  0  0
 15 16  1  0  0  0  0
 12 17  2  0  0  0  0
 17 18  1  0  0  0  0
 18 19  1  0  0  0  0
  1 20  1  0  0  0  0
  1 21  1  0  0  0  0
  1 22  1  0  0  0  0
  2 23  1  0  0  0  0
  2 24  1  0  0  0  0
  7 25  1  0  0  0  0
  7 26  1  0  0  0  0
  8 27  1  0  0  0  0
  8 28  1  0  0  0  0
  8 29  1  0  0  0  0
 10 30  1  0  0  0  0
 10 31  1  0  0  0  0
 15 32  1  0  0  0  0
 15 33  1  0  0  0  0
 16 34  1  0  0  0  0
 16 35  1  0  0  0  0
 16 36  1  0  0  0  0
 18 37  1  0  0  0  0
 18 38  1  0  0  0  0
 19 39  1  0  0  0  0
 19 40  1  0  0  0  0
 19 41  1  0  0  0  0
M  END
