 xtb: 6.7.1 (edcfbbe)
          04092505203D

 41 40  0     0  0            999 V2000
    4.6310    0.7091   -2.0363 C   0  0  0  0  0  0  0  0  0  0  0  0
    4.6275    0.7669   -0.5226 C   0  0  0  0  0  0  0  0  0  0  0  0
    3.7088   -0.1809    0.0459 O   0  0  0  0  0  0  0  0  0  0  0  0
    2.1327   -0.0239   -0.0899 P   0  0  0  0  0  0  0  0  0  0  0  0
    1.5250    1.8343    0.0975 S   0  0  0  0  0  0  0  0  0  0  0  0
    1.5829   -1.0510    0.9834 O   0  0  0  0  0  0  0  0  0  0  0  0
    1.3750   -0.6902    2.3629 C   0  0  0  0  0  0  0  0  0  0  0  0
    2.6729   -0.3686    3.0699 C   0  0  0  0  0  0  0  0  0  0  0  0
    1.7311   -1.1123   -1.8504 S   0  0  0  0  0  0  0  0  0  0  0  0
   -0.0384   -1.4781   -1.7000 C   0  0  0  0  0  0  0  0  0  0  0  0
   -1.1120   -0.0150   -1.6723 S   0  0  0  0  0  0  0  0  0  0  0  0
   -1.9705   -0.2106    0.2770 P   0  0  0  0  0  0  0  0  0  0  0  0
   -1.6569   -1.9197    1.1734 S   0  0  0  0  0  0  0  0  0  0  0  0
   -3.4968    0.1332   -0.0011 O   0  0  0  0  0  0  0  0  0  0  0  0
   -4.3356   -0.7743   -0.7446 C   0  0  0  0  0  0  0  0  0  0  0  0
   -5.7655   -0.2895   -0.6197 C   0  0  0  0  0  0  0  0  0  0  0  0
   -1.5084    1.0188    1.1416 O   0  0  0  0  0  0  0  0  0  0  0  0
   -1.8065    2.3908    0.7730 C   0  0  0  0  0  0  0  0  0  0  0  0
   -3.0038    2.8977    1.5472 C   0  0  0  0  0  0  0  0  0  0  0  0
    4.8147   -0.3072   -2.3752 H   0  0  0  0  0  0  0  0  0  0  0  0
    3.6651    1.0353   -2.4216 H   0  0  0  0  0  0  0  0  0  0  0  0
    5.4045    1.3658   -2.4213 H   0  0  0  0  0  0  0  0  0  0  0  0
    4.3513    1.7686   -0.1763 H   0  0  0  0  0  0  0  0  0  0  0  0
    5.5931    0.4809   -0.1037 H   0  0  0  0  0  0  0  0  0  0  0  0
    0.6873    0.1623    2.3976 H   0  0  0  0  0  0  0  0  0  0  0  0
    0.8819   -1.5673    2.7864 H   0  0  0  0  0  0  0  0  0  0  0  0
    2.4758   -0.2222    4.1273 H   0  0  0  0  0  0  0  0  0  0  0  0
    3.3802   -1.1836    2.9406 H   0  0  0  0  0  0  0  0  0  0  0  0
    3.1036    0.5438    2.6593 H   0  0  0  0  0  0  0  0  0  0  0  0
   -0.2229   -2.0636   -0.7948 H   0  0  0  0  0  0  0  0  0  0  0  0
   -0.2808   -2.0477   -2.5941 H   0  0  0  0  0  0  0  0  0  0  0  0
   -4.0025   -0.7740   -1.7863 H   0  0  0  0  0  0  0  0  0  0  0  0
   -4.2127   -1.7794   -0.3284 H   0  0  0  0  0  0  0  0  0  0  0  0
   -6.4157   -0.9545   -1.1783 H   0  0  0  0  0  0  0  0  0  0  0  0
   -6.0689   -0.2848    0.4234 H   0  0  0  0  0  0  0  0  0  0  0  0
   -5.8531    0.7171   -1.0184 H   0  0  0  0  0  0  0  0  0  0  0  0
   -0.8981    2.9451    1.0186 H   0  0  0  0  0  0  0  0  0  0  0  0
   -1.9734    2.4389   -0.3062 H   0  0  0  0  0  0  0  0  0  0  0  0
   -3.8905    2.3261    1.2864 H   0  0  0  0  0  0  0  0  0  0  0  0
   -2.8234    2.8015    2.6143 H   0  0  0  0  0  0  0  0  0  0  0  0
   -3.1631    3.9431    1.3027 H   0  0  0  0  0  0  0  0  0  0  0  0
  1  2  1  0  0  0  0
  2  3  1  0  0  0  0
  3  4  2  0  0  0  0
  4  5  2  0  0  0  0
  4  6  2  0  0  0  0
  6  7  1  0  0  0  0
  7  8  1  0  0  0  0
  4  9  1  0  0  0  0
  9 10  1  0  0  0  0
 10 11  1  0  0  0  0
 11 12  1  0  0  0  0
 12 13  2  0  0  0  0
 12 14  2  0  0  0  0
 14 15  1  0  0  0  0
 15 16  1  0  0  0  0
 12 17  2  0  0  0  0
 17 18  1  0  0  0  0
 18 19  1  0  0  0  0
  1 20  1  0  0  0  0
  1 21  1  0  0  0  0
  1 22  1  0  0  0  0
  2 23  1  0  0  0  0
  2 24  1  0  0  0  0
  7 25  1  0  0  0  0
  7 26  1  0  0  0  0
  8 27  1  0  0  0  0
  8 28  1  0  0  0  0
  8 29  1  0  0  0  0
 10 30  1  0  0  0  0
 10 31  1  0  0  0  0
 15 32  1  0  0  0  0
 15 33  1  0  0  0  0
 16 34  1  0  0  0  0
 16 35  1  0  0  0  0
 16 36  1  0  0  0  0
 18 37  1  0  0  0  0
 18 38  1  0  0  0  0
 19 39  1  0  0  0  0
 19 40  1  0  0  0  0
 19 41  1  0  0  0  0
M  END
