 xtb: 6.7.1 (edcfbbe)
          04092507313D

 38 37  0     0  0            999 V2000
    3.1179   -3.1426    1.3020 C   0  0  0  0  0  0  0  0  0  0  0  0
    2.9428   -1.6369    1.3765 C   0  0  0  0  0  0  0  0  0  0  0  0
    2.6007   -1.1478    0.0648 O   0  0  0  0  0  0  0  0  0  0  0  0
    1.6015   -0.3222   -0.0823 C   0  0  0  0  0  0  0  0  0  0  0  0
    0.9522    0.1717    0.8279 O   0  0  0  0  0  0  0  0  0  0  0  0
    1.3507    0.0292   -1.5316 C   0  0  0  0  0  0  0  0  0  0  0  0
    0.2277    1.0518   -1.6170 C   0  0  0  0  0  0  0  0  0  0  0  0
    0.2381    1.5504   -2.5903 H   0  0  0  0  0  0  0  0  0  0  0  0
    0.3487    2.1170   -0.5340 C   0  0  0  0  0  0  0  0  0  0  0  0
   -0.5885    2.5493    0.0981 O   0  0  0  0  0  0  0  0  0  0  0  0
    1.5808    2.5734   -0.4551 O   0  0  0  0  0  0  0  0  0  0  0  0
    1.8476    3.5982    0.5242 C   0  0  0  0  0  0  0  0  0  0  0  0
    3.2288    4.1605    0.2536 C   0  0  0  0  0  0  0  0  0  0  0  0
   -1.4492    0.3384   -1.5587 S   0  0  0  0  0  0  0  0  0  0  0  0
   -1.5961   -0.9568    0.1205 P   0  0  0  0  0  0  0  0  0  0  0  0
   -0.4459   -2.5385    0.1999 S   0  0  0  0  0  0  0  0  0  0  0  0
   -1.6924   -0.1784    1.4898 O   0  0  0  0  0  0  0  0  0  0  0  0
   -2.6544    0.8596    1.7594 C   0  0  0  0  0  0  0  0  0  0  0  0
   -3.1361   -1.3606   -0.0767 O   0  0  0  0  0  0  0  0  0  0  0  0
   -3.5529   -2.2256   -1.1384 C   0  0  0  0  0  0  0  0  0  0  0  0
    3.4138   -3.5176    2.2759 H   0  0  0  0  0  0  0  0  0  0  0  0
    2.1797   -3.6083    1.0085 H   0  0  0  0  0  0  0  0  0  0  0  0
    3.8794   -3.3909    0.5695 H   0  0  0  0  0  0  0  0  0  0  0  0
    3.8734   -1.1403    1.6628 H   0  0  0  0  0  0  0  0  0  0  0  0
    2.1461   -1.3575    2.0723 H   0  0  0  0  0  0  0  0  0  0  0  0
    1.1066   -0.8802   -2.0839 H   0  0  0  0  0  0  0  0  0  0  0  0
    2.2722    0.4434   -1.9439 H   0  0  0  0  0  0  0  0  0  0  0  0
    1.0689    4.3629    0.4424 H   0  0  0  0  0  0  0  0  0  0  0  0
    1.7779    3.1378    1.5152 H   0  0  0  0  0  0  0  0  0  0  0  0
    3.9742    3.3751    0.3325 H   0  0  0  0  0  0  0  0  0  0  0  0
    3.2688    4.5857   -0.7447 H   0  0  0  0  0  0  0  0  0  0  0  0
    3.4461    4.9344    0.9820 H   0  0  0  0  0  0  0  0  0  0  0  0
   -3.6367    0.5668    1.3947 H   0  0  0  0  0  0  0  0  0  0  0  0
   -2.3256    1.7848    1.2867 H   0  0  0  0  0  0  0  0  0  0  0  0
   -2.6567    0.9641    2.8412 H   0  0  0  0  0  0  0  0  0  0  0  0
   -2.8699   -3.0729   -1.2193 H   0  0  0  0  0  0  0  0  0  0  0  0
   -3.5764   -1.6733   -2.0768 H   0  0  0  0  0  0  0  0  0  0  0  0
   -4.5486   -2.5656   -0.8650 H   0  0  0  0  0  0  0  0  0  0  0  0
  1  2  1  0  0  0  0
  2  3  1  0  0  0  0
  3  4  4  0  0  0  0
  4  5  2  0  0  0  0
  4  6  1  0  0  0  0
  6  7  1  0  0  0  0
  7  8  1  0  0  0  0
  7  9  1  0  0  0  0
  9 10  2  0  0  0  0
  9 11  1  0  0  0  0
 11 12  1  0  0  0  0
 12 13  1  0  0  0  0
  7 14  1  0  0  0  0
 14 15  1  0  0  0  0
 15 16  2  0  0  0  0
 15 17  2  0  0  0  0
 17 18  1  0  0  0  0
 15 19  1  0  0  0  0
 19 20  1  0  0  0  0
  1 21  1  0  0  0  0
  1 22  1  0  0  0  0
  1 23  1  0  0  0  0
  2 24  1  0  0  0  0
  2 25  1  0  0  0  0
  6 26  1  0  0  0  0
  6 27  1  0  0  0  0
 12 28  1  0  0  0  0
 12 29  1  0  0  0  0
 13 30  1  0  0  0  0
 13 31  1  0  0  0  0
 13 32  1  0  0  0  0
 18 33  1  0  0  0  0
 18 34  1  0  0  0  0
 18 35  1  0  0  0  0
 20 36  1  0  0  0  0
 20 37  1  0  0  0  0
 20 38  1  0  0  0  0
M  END
