 xtb: 6.7.1 (edcfbbe)
          04032519583D

 10  9  0     0  0            999 V2000
   -0.6083   -0.0086   -0.4691 C   0  0  0  0  0  0  0  0  0  0  0  0
    0.6082    0.0086    0.4690 C   0  0  0  0  0  0  0  0  0  0  0  0
    1.8277   -0.0188   -0.2352 O   0  0  0  0  0  0  0  0  0  0  0  0
   -1.8277    0.0188    0.2353 O   0  0  0  0  0  0  0  0  0  0  0  0
   -0.6240   -0.9393   -1.0425 H   0  0  0  0  0  0  0  0  0  0  0  0
   -0.5377    0.8319   -1.1717 H   0  0  0  0  0  0  0  0  0  0  0  0
    0.5376   -0.8318    1.1716 H   0  0  0  0  0  0  0  0  0  0  0  0
    0.6238    0.9394    1.0424 H   0  0  0  0  0  0  0  0  0  0  0  0
    1.9027   -0.8530   -0.7189 H   0  0  0  0  0  0  0  0  0  0  0  0
   -1.9025    0.8529    0.7192 H   0  0  0  0  0  0  0  0  0  0  0  0
  1  2  1  0  0  0  0
  2  3  1  0  0  0  0
  1  4  1  0  0  0  0
  1  5  1  0  0  0  0
  1  6  1  0  0  0  0
  2  7  1  0  0  0  0
  2  8  1  0  0  0  0
  3  9  1  0  0  0  0
  4 10  1  0  0  0  0
M  END
