 xtb: 6.7.1 (edcfbbe)
          04092505213D

 41 40  0     0  0            999 V2000
    3.9772   -2.2740    1.1159 C   0  0  0  0  0  0  0  0  0  0  0  0
    2.5564   -2.1723    0.5991 C   0  0  0  0  0  0  0  0  0  0  0  0
    2.0804   -0.8159    0.6492 O   0  0  0  0  0  0  0  0  0  0  0  0
    2.5709    0.2903   -0.3986 P   0  0  0  0  0  0  0  0  0  0  0  0
    3.1933   -0.3914   -2.1200 S   0  0  0  0  0  0  0  0  0  0  0  0
    3.6869    1.1432    0.3317 O   0  0  0  0  0  0  0  0  0  0  0  0
    3.5454    1.6545    1.6817 C   0  0  0  0  0  0  0  0  0  0  0  0
    3.1053    3.1044    1.6676 C   0  0  0  0  0  0  0  0  0  0  0  0
    0.8571    1.5269   -0.4392 S   0  0  0  0  0  0  0  0  0  0  0  0
   -0.0824    0.5140   -1.6103 C   0  0  0  0  0  0  0  0  0  0  0  0
   -0.7070   -1.0335   -0.8944 S   0  0  0  0  0  0  0  0  0  0  0  0
   -2.5483   -0.3189   -0.1253 P   0  0  0  0  0  0  0  0  0  0  0  0
   -2.9219    1.6062   -0.2361 S   0  0  0  0  0  0  0  0  0  0  0  0
   -2.6810   -0.9496    1.3289 O   0  0  0  0  0  0  0  0  0  0  0  0
   -2.2793   -0.2518    2.5195 C   0  0  0  0  0  0  0  0  0  0  0  0
   -0.7728   -0.1403    2.6335 C   0  0  0  0  0  0  0  0  0  0  0  0
   -3.5019   -1.2559   -0.9744 O   0  0  0  0  0  0  0  0  0  0  0  0
   -4.9095   -0.9834   -1.1350 C   0  0  0  0  0  0  0  0  0  0  0  0
   -5.6747   -1.1436    0.1621 C   0  0  0  0  0  0  0  0  0  0  0  0
    4.2953   -3.3115    1.0951 H   0  0  0  0  0  0  0  0  0  0  0  0
    4.6399   -1.6884    0.4790 H   0  0  0  0  0  0  0  0  0  0  0  0
    4.0398   -1.8976    2.1336 H   0  0  0  0  0  0  0  0  0  0  0  0
    1.8530   -2.7283    1.2201 H   0  0  0  0  0  0  0  0  0  0  0  0
    2.4928   -2.5273   -0.4342 H   0  0  0  0  0  0  0  0  0  0  0  0
    2.8349    1.0284    2.2264 H   0  0  0  0  0  0  0  0  0  0  0  0
    4.5423    1.5497    2.1132 H   0  0  0  0  0  0  0  0  0  0  0  0
    2.1072    3.1987    1.2444 H   0  0  0  0  0  0  0  0  0  0  0  0
    3.0971    3.4820    2.6853 H   0  0  0  0  0  0  0  0  0  0  0  0
    3.7936    3.6963    1.0708 H   0  0  0  0  0  0  0  0  0  0  0  0
    0.5710    0.2390   -2.4384 H   0  0  0  0  0  0  0  0  0  0  0  0
   -0.9173    1.1275   -1.9456 H   0  0  0  0  0  0  0  0  0  0  0  0
   -2.7371    0.7429    2.5107 H   0  0  0  0  0  0  0  0  0  0  0  0
   -2.7011   -0.8492    3.3291 H   0  0  0  0  0  0  0  0  0  0  0  0
   -0.3869    0.5120    1.8510 H   0  0  0  0  0  0  0  0  0  0  0  0
   -0.5152    0.2821    3.5995 H   0  0  0  0  0  0  0  0  0  0  0  0
   -0.3121   -1.1198    2.5314 H   0  0  0  0  0  0  0  0  0  0  0  0
   -5.0215    0.0328   -1.5264 H   0  0  0  0  0  0  0  0  0  0  0  0
   -5.2290   -1.7075   -1.8857 H   0  0  0  0  0  0  0  0  0  0  0  0
   -5.3761   -0.3702    0.8682 H   0  0  0  0  0  0  0  0  0  0  0  0
   -6.7381   -1.0493   -0.0349 H   0  0  0  0  0  0  0  0  0  0  0  0
   -5.4716   -2.1176    0.5993 H   0  0  0  0  0  0  0  0  0  0  0  0
  1  2  1  0  0  0  0
  2  3  1  0  0  0  0
  3  4  1  0  0  0  0
  4  5  2  0  0  0  0
  4  6  2  0  0  0  0
  6  7  1  0  0  0  0
  7  8  1  0  0  0  0
  4  9  1  0  0  0  0
  9 10  1  0  0  0  0
 10 11  1  0  0  0  0
 11 12  1  0  0  0  0
 12 13  2  0  0  0  0
 12 14  2  0  0  0  0
 14 15  1  0  0  0  0
 15 16  1  0  0  0  0
 12 17  2  0  0  0  0
 17 18  1  0  0  0  0
 18 19  1  0  0  0  0
  1 20  1  0  0  0  0
  1 21  1  0  0  0  0
  1 22  1  0  0  0  0
  2 23  1  0  0  0  0
  2 24  1  0  0  0  0
  7 25  1  0  0  0  0
  7 26  1  0  0  0  0
  8 27  1  0  0  0  0
  8 28  1  0  0  0  0
  8 29  1  0  0  0  0
 10 30  1  0  0  0  0
 10 31  1  0  0  0  0
 15 32  1  0  0  0  0
 15 33  1  0  0  0  0
 16 34  1  0  0  0  0
 16 35  1  0  0  0  0
 16 36  1  0  0  0  0
 18 37  1  0  0  0  0
 18 38  1  0  0  0  0
 19 39  1  0  0  0  0
 19 40  1  0  0  0  0
 19 41  1  0  0  0  0
M  END
