 xtb: 6.7.1 (edcfbbe)
          04092505203D

 41 40  0     0  0            999 V2000
    4.5447   -2.2028    0.5874 C   0  0  0  0  0  0  0  0  0  0  0  0
    4.7334   -0.7098    0.4134 C   0  0  0  0  0  0  0  0  0  0  0  0
    3.5342    0.0237    0.7202 O   0  0  0  0  0  0  0  0  0  0  0  0
    2.2360   -0.0422   -0.2004 P   0  0  0  0  0  0  0  0  0  0  0  0
    2.6475   -0.0919   -2.1217 S   0  0  0  0  0  0  0  0  0  0  0  0
    1.4332    1.2165    0.3469 O   0  0  0  0  0  0  0  0  0  0  0  0
    1.7603    2.5616   -0.0650 C   0  0  0  0  0  0  0  0  0  0  0  0
    0.8046    3.0416   -1.1398 C   0  0  0  0  0  0  0  0  0  0  0  0
    1.0877   -1.5866    0.6312 S   0  0  0  0  0  0  0  0  0  0  0  0
   -0.1100   -1.7965   -0.7267 C   0  0  0  0  0  0  0  0  0  0  0  0
   -0.8031   -0.2513   -1.3746 S   0  0  0  0  0  0  0  0  0  0  0  0
   -2.1264    0.2584    0.1907 P   0  0  0  0  0  0  0  0  0  0  0  0
   -3.1322    1.9236   -0.0302 S   0  0  0  0  0  0  0  0  0  0  0  0
   -1.1303    0.1991    1.4194 O   0  0  0  0  0  0  0  0  0  0  0  0
   -1.4152    0.8492    2.6726 C   0  0  0  0  0  0  0  0  0  0  0  0
   -2.5325    0.1568    3.4240 C   0  0  0  0  0  0  0  0  0  0  0  0
   -3.0144   -1.0468    0.4367 O   0  0  0  0  0  0  0  0  0  0  0  0
   -4.2792   -1.2377   -0.2166 C   0  0  0  0  0  0  0  0  0  0  0  0
   -4.1186   -1.5203   -1.6971 C   0  0  0  0  0  0  0  0  0  0  0  0
    3.8491   -2.5782   -0.1618 H   0  0  0  0  0  0  0  0  0  0  0  0
    5.5003   -2.7021    0.4630 H   0  0  0  0  0  0  0  0  0  0  0  0
    4.1471   -2.4210    1.5753 H   0  0  0  0  0  0  0  0  0  0  0  0
    5.0267   -0.4763   -0.6152 H   0  0  0  0  0  0  0  0  0  0  0  0
    5.4704   -0.3101    1.1112 H   0  0  0  0  0  0  0  0  0  0  0  0
    1.6724    3.1610    0.8429 H   0  0  0  0  0  0  0  0  0  0  0  0
    2.7936    2.5871   -0.4229 H   0  0  0  0  0  0  0  0  0  0  0  0
   -0.2243    2.9708   -0.7917 H   0  0  0  0  0  0  0  0  0  0  0  0
    1.0264    4.0757   -1.3826 H   0  0  0  0  0  0  0  0  0  0  0  0
    0.9077    2.4341   -2.0370 H   0  0  0  0  0  0  0  0  0  0  0  0
   -0.9034   -2.4286   -0.3349 H   0  0  0  0  0  0  0  0  0  0  0  0
    0.3886   -2.2608   -1.5757 H   0  0  0  0  0  0  0  0  0  0  0  0
   -0.4680    0.7973    3.2118 H   0  0  0  0  0  0  0  0  0  0  0  0
   -1.6722    1.8942    2.4703 H   0  0  0  0  0  0  0  0  0  0  0  0
   -2.3112   -0.9018    3.5318 H   0  0  0  0  0  0  0  0  0  0  0  0
   -2.6373    0.6074    4.4060 H   0  0  0  0  0  0  0  0  0  0  0  0
   -3.4695    0.2701    2.8807 H   0  0  0  0  0  0  0  0  0  0  0  0
   -4.7253   -2.0822    0.3104 H   0  0  0  0  0  0  0  0  0  0  0  0
   -4.8864   -0.3395   -0.0642 H   0  0  0  0  0  0  0  0  0  0  0  0
   -5.0931   -1.7191   -2.1314 H   0  0  0  0  0  0  0  0  0  0  0  0
   -3.6809   -0.6554   -2.1952 H   0  0  0  0  0  0  0  0  0  0  0  0
   -3.4732   -2.3802   -1.8565 H   0  0  0  0  0  0  0  0  0  0  0  0
  1  2  1  0  0  0  0
  2  3  1  0  0  0  0
  3  4  2  0  0  0  0
  4  5  2  0  0  0  0
  4  6  1  0  0  0  0
  6  7  1  0  0  0  0
  7  8  1  0  0  0  0
  4  9  1  0  0  0  0
  9 10  1  0  0  0  0
 10 11  1  0  0  0  0
 11 12  1  0  0  0  0
 12 13  2  0  0  0  0
 12 14  2  0  0  0  0
 14 15  1  0  0  0  0
 15 16  1  0  0  0  0
 12 17  1  0  0  0  0
 17 18  1  0  0  0  0
 18 19  1  0  0  0  0
  1 20  1  0  0  0  0
  1 21  1  0  0  0  0
  1 22  1  0  0  0  0
  2 23  1  0  0  0  0
  2 24  1  0  0  0  0
  7 25  1  0  0  0  0
  7 26  1  0  0  0  0
  8 27  1  0  0  0  0
  8 28  1  0  0  0  0
  8 29  1  0  0  0  0
 10 30  1  0  0  0  0
 10 31  1  0  0  0  0
 15 32  1  0  0  0  0
 15 33  1  0  0  0  0
 16 34  1  0  0  0  0
 16 35  1  0  0  0  0
 16 36  1  0  0  0  0
 18 37  1  0  0  0  0
 18 38  1  0  0  0  0
 19 39  1  0  0  0  0
 19 40  1  0  0  0  0
 19 41  1  0  0  0  0
M  END
