 xtb: 6.7.1 (edcfbbe)
          04032520063D

 19 19  0     0  0            999 V2000
    2.3474   -0.0183    0.2275 C   0  0  0  0  0  0  0  0  0  0  0  0
    0.9030   -0.0171    0.2795 N   0  0  0  0  0  0  0  0  0  0  0  0
    0.3530    1.2375   -0.2127 C   0  0  0  0  0  0  0  0  0  0  0  0
   -1.1887    1.1447   -0.2609 C   0  0  0  0  0  0  0  0  0  0  0  0
   -1.6881    0.0129    0.4964 N   0  0  0  0  0  0  0  0  0  0  0  0
   -1.1857   -1.2246   -0.0787 C   0  0  0  0  0  0  0  0  0  0  0  0
    0.3179   -1.1412   -0.4324 C   0  0  0  0  0  0  0  0  0  0  0  0
    2.7216    0.8217    0.8107 H   0  0  0  0  0  0  0  0  0  0  0  0
    2.7348    0.0688   -0.8007 H   0  0  0  0  0  0  0  0  0  0  0  0
    2.7188   -0.9435    0.6645 H   0  0  0  0  0  0  0  0  0  0  0  0
    0.6690    2.0240    0.4778 H   0  0  0  0  0  0  0  0  0  0  0  0
    0.7501    1.4841   -1.2150 H   0  0  0  0  0  0  0  0  0  0  0  0
   -1.6369    2.0557    0.1377 H   0  0  0  0  0  0  0  0  0  0  0  0
   -1.5300    1.0199   -1.2924 H   0  0  0  0  0  0  0  0  0  0  0  0
   -1.3398    0.0933    1.4474 H   0  0  0  0  0  0  0  0  0  0  0  0
   -1.3685   -2.0263    0.6364 H   0  0  0  0  0  0  0  0  0  0  0  0
   -1.7671   -1.4321   -0.9823 H   0  0  0  0  0  0  0  0  0  0  0  0
    0.8313   -2.0517   -0.1198 H   0  0  0  0  0  0  0  0  0  0  0  0
    0.4549   -1.0330   -1.5242 H   0  0  0  0  0  0  0  0  0  0  0  0
  1  2  1  0  0  0  0
  2  3  1  0  0  0  0
  3  4  1  0  0  0  0
  4  5  1  0  0  0  0
  5  6  1  0  0  0  0
  2  7  1  0  0  0  0
  6  7  1  0  0  0  0
  1  8  1  0  0  0  0
  1  9  1  0  0  0  0
  1 10  1  0  0  0  0
  3 11  1  0  0  0  0
  3 12  1  0  0  0  0
  4 13  1  0  0  0  0
  4 14  1  0  0  0  0
  5 15  1  0  0  0  0
  6 16  1  0  0  0  0
  6 17  1  0  0  0  0
  7 18  1  0  0  0  0
  7 19  1  0  0  0  0
M  END
