 xtb: 6.7.1 (edcfbbe)
          04092505213D

 41 40  0     0  0            999 V2000
    4.0579   -0.5939   -2.3089 C   0  0  0  0  0  0  0  0  0  0  0  0
    4.3774   -0.7877   -0.8403 C   0  0  0  0  0  0  0  0  0  0  0  0
    3.1881   -0.8334   -0.0371 O   0  0  0  0  0  0  0  0  0  0  0  0
    2.3336    0.4835    0.2620 P   0  0  0  0  0  0  0  0  0  0  0  0
    3.3869    2.1277    0.4277 S   0  0  0  0  0  0  0  0  0  0  0  0
    1.4591    0.0170    1.4976 O   0  0  0  0  0  0  0  0  0  0  0  0
    1.9650   -0.7203    2.6339 C   0  0  0  0  0  0  0  0  0  0  0  0
    2.9663    0.0854    3.4342 C   0  0  0  0  0  0  0  0  0  0  0  0
    0.8116    0.5759   -1.2055 S   0  0  0  0  0  0  0  0  0  0  0  0
    0.1813   -1.1272   -1.0516 C   0  0  0  0  0  0  0  0  0  0  0  0
   -1.0207   -1.3327    0.2780 S   0  0  0  0  0  0  0  0  0  0  0  0
   -2.5051   -0.0394   -0.5349 P   0  0  0  0  0  0  0  0  0  0  0  0
   -2.6263   -0.0927   -2.4900 S   0  0  0  0  0  0  0  0  0  0  0  0
   -2.2185    1.4467   -0.0835 O   0  0  0  0  0  0  0  0  0  0  0  0
   -2.4722    2.0223    1.2195 C   0  0  0  0  0  0  0  0  0  0  0  0
   -1.6449    1.3835    2.3155 C   0  0  0  0  0  0  0  0  0  0  0  0
   -3.8009   -0.3834    0.3171 O   0  0  0  0  0  0  0  0  0  0  0  0
   -4.3016   -1.7114    0.5655 C   0  0  0  0  0  0  0  0  0  0  0  0
   -4.5713   -2.4853   -0.7074 C   0  0  0  0  0  0  0  0  0  0  0  0
    3.3871   -1.3725   -2.6633 H   0  0  0  0  0  0  0  0  0  0  0  0
    3.5821    0.3751   -2.4591 H   0  0  0  0  0  0  0  0  0  0  0  0
    4.9776   -0.6247   -2.8840 H   0  0  0  0  0  0  0  0  0  0  0  0
    5.0094    0.0291   -0.4771 H   0  0  0  0  0  0  0  0  0  0  0  0
    4.8627   -1.7469   -0.6545 H   0  0  0  0  0  0  0  0  0  0  0  0
    1.0659   -0.9390    3.2121 H   0  0  0  0  0  0  0  0  0  0  0  0
    2.4086   -1.6500    2.2727 H   0  0  0  0  0  0  0  0  0  0  0  0
    3.8434    0.3048    2.8266 H   0  0  0  0  0  0  0  0  0  0  0  0
    2.5280    1.0278    3.7532 H   0  0  0  0  0  0  0  0  0  0  0  0
    3.2713   -0.4830    4.3071 H   0  0  0  0  0  0  0  0  0  0  0  0
    1.0030   -1.8093   -0.8495 H   0  0  0  0  0  0  0  0  0  0  0  0
   -0.3020   -1.3459   -2.0040 H   0  0  0  0  0  0  0  0  0  0  0  0
   -2.2082    3.0723    1.0805 H   0  0  0  0  0  0  0  0  0  0  0  0
   -3.5396    1.9317    1.4297 H   0  0  0  0  0  0  0  0  0  0  0  0
   -1.9490    0.3504    2.4713 H   0  0  0  0  0  0  0  0  0  0  0  0
   -0.5890    1.4041    2.0526 H   0  0  0  0  0  0  0  0  0  0  0  0
   -1.7910    1.9394    3.2366 H   0  0  0  0  0  0  0  0  0  0  0  0
   -3.5757   -2.2382    1.1909 H   0  0  0  0  0  0  0  0  0  0  0  0
   -5.2203   -1.5358    1.1282 H   0  0  0  0  0  0  0  0  0  0  0  0
   -3.6410   -2.6610   -1.2451 H   0  0  0  0  0  0  0  0  0  0  0  0
   -5.0240   -3.4398   -0.4591 H   0  0  0  0  0  0  0  0  0  0  0  0
   -5.2403   -1.9265   -1.3573 H   0  0  0  0  0  0  0  0  0  0  0  0
  1  2  1  0  0  0  0
  2  3  1  0  0  0  0
  3  4  2  0  0  0  0
  4  5  2  0  0  0  0
  4  6  2  0  0  0  0
  6  7  1  0  0  0  0
  7  8  1  0  0  0  0
  4  9  1  0  0  0  0
  9 10  1  0  0  0  0
 10 11  1  0  0  0  0
 11 12  1  0  0  0  0
 12 13  2  0  0  0  0
 12 14  2  0  0  0  0
 14 15  1  0  0  0  0
 15 16  1  0  0  0  0
 12 17  2  0  0  0  0
 17 18  1  0  0  0  0
 18 19  1  0  0  0  0
  1 20  1  0  0  0  0
  1 21  1  0  0  0  0
  1 22  1  0  0  0  0
  2 23  1  0  0  0  0
  2 24  1  0  0  0  0
  7 25  1  0  0  0  0
  7 26  1  0  0  0  0
  8 27  1  0  0  0  0
  8 28  1  0  0  0  0
  8 29  1  0  0  0  0
 10 30  1  0  0  0  0
 10 31  1  0  0  0  0
 15 32  1  0  0  0  0
 15 33  1  0  0  0  0
 16 34  1  0  0  0  0
 16 35  1  0  0  0  0
 16 36  1  0  0  0  0
 18 37  1  0  0  0  0
 18 38  1  0  0  0  0
 19 39  1  0  0  0  0
 19 40  1  0  0  0  0
 19 41  1  0  0  0  0
M  END
