 xtb: 6.7.1 (edcfbbe)
          04092505203D

 41 40  0     0  0            999 V2000
    1.4825   -1.3981   -2.9570 C   0  0  0  0  0  0  0  0  0  0  0  0
    2.4095   -0.7579   -1.9451 C   0  0  0  0  0  0  0  0  0  0  0  0
    1.6237    0.1094   -1.0827 O   0  0  0  0  0  0  0  0  0  0  0  0
    1.8924    0.2322    0.4649 P   0  0  0  0  0  0  0  0  0  0  0  0
    0.8382    1.6265    1.3382 S   0  0  0  0  0  0  0  0  0  0  0  0
    3.4671    0.4422    0.5043 O   0  0  0  0  0  0  0  0  0  0  0  0
    4.1641    0.9457    1.6596 C   0  0  0  0  0  0  0  0  0  0  0  0
    4.0921   -0.0028    2.8383 C   0  0  0  0  0  0  0  0  0  0  0  0
    1.6111   -1.7284    1.2308 S   0  0  0  0  0  0  0  0  0  0  0  0
   -0.1894   -1.6371    1.3769 C   0  0  0  0  0  0  0  0  0  0  0  0
   -1.0567   -1.7606   -0.2239 S   0  0  0  0  0  0  0  0  0  0  0  0
   -1.9185    0.1422   -0.5480 P   0  0  0  0  0  0  0  0  0  0  0  0
   -1.0983    1.5166   -1.6919 S   0  0  0  0  0  0  0  0  0  0  0  0
   -2.2422    0.5305    0.9513 O   0  0  0  0  0  0  0  0  0  0  0  0
   -2.7646    1.8354    1.2874 C   0  0  0  0  0  0  0  0  0  0  0  0
   -2.5939    2.0343    2.7783 C   0  0  0  0  0  0  0  0  0  0  0  0
   -3.3731   -0.2444   -1.0826 O   0  0  0  0  0  0  0  0  0  0  0  0
   -3.6560   -0.3930   -2.4813 C   0  0  0  0  0  0  0  0  0  0  0  0
   -2.9577   -1.6053   -3.0624 C   0  0  0  0  0  0  0  0  0  0  0  0
    2.0733   -1.9437   -3.6853 H   0  0  0  0  0  0  0  0  0  0  0  0
    0.7960   -2.0834   -2.4648 H   0  0  0  0  0  0  0  0  0  0  0  0
    0.9072   -0.6266   -3.4637 H   0  0  0  0  0  0  0  0  0  0  0  0
    3.1535   -0.1219   -2.4272 H   0  0  0  0  0  0  0  0  0  0  0  0
    2.9126   -1.5083   -1.3286 H   0  0  0  0  0  0  0  0  0  0  0  0
    5.1879    1.0726    1.3047 H   0  0  0  0  0  0  0  0  0  0  0  0
    3.7378    1.9191    1.9210 H   0  0  0  0  0  0  0  0  0  0  0  0
    4.7451    0.3591    3.6259 H   0  0  0  0  0  0  0  0  0  0  0  0
    3.0732   -0.0486    3.2192 H   0  0  0  0  0  0  0  0  0  0  0  0
    4.4021   -1.0015    2.5414 H   0  0  0  0  0  0  0  0  0  0  0  0
   -0.4678   -0.7028    1.8631 H   0  0  0  0  0  0  0  0  0  0  0  0
   -0.4933   -2.4999    1.9632 H   0  0  0  0  0  0  0  0  0  0  0  0
   -2.2097    2.5890    0.7176 H   0  0  0  0  0  0  0  0  0  0  0  0
   -3.8157    1.8608    0.9903 H   0  0  0  0  0  0  0  0  0  0  0  0
   -3.0260    2.9889    3.0591 H   0  0  0  0  0  0  0  0  0  0  0  0
   -3.0929    1.2357    3.3194 H   0  0  0  0  0  0  0  0  0  0  0  0
   -1.5361    2.0340    3.0308 H   0  0  0  0  0  0  0  0  0  0  0  0
   -4.7417   -0.4868   -2.5248 H   0  0  0  0  0  0  0  0  0  0  0  0
   -3.3374    0.5198   -2.9963 H   0  0  0  0  0  0  0  0  0  0  0  0
   -1.8779   -1.4658   -2.9984 H   0  0  0  0  0  0  0  0  0  0  0  0
   -3.2265   -2.5004   -2.5077 H   0  0  0  0  0  0  0  0  0  0  0  0
   -3.2379   -1.7232   -4.1039 H   0  0  0  0  0  0  0  0  0  0  0  0
  1  2  1  0  0  0  0
  2  3  1  0  0  0  0
  3  4  2  0  0  0  0
  4  5  2  0  0  0  0
  4  6  2  0  0  0  0
  6  7  1  0  0  0  0
  7  8  1  0  0  0  0
  4  9  1  0  0  0  0
  9 10  1  0  0  0  0
 10 11  1  0  0  0  0
 11 12  1  0  0  0  0
 12 13  2  0  0  0  0
 12 14  2  0  0  0  0
 14 15  1  0  0  0  0
 15 16  1  0  0  0  0
 12 17  2  0  0  0  0
 17 18  1  0  0  0  0
 18 19  1  0  0  0  0
  1 20  1  0  0  0  0
  1 21  1  0  0  0  0
  1 22  1  0  0  0  0
  2 23  1  0  0  0  0
  2 24  1  0  0  0  0
  7 25  1  0  0  0  0
  7 26  1  0  0  0  0
  8 27  1  0  0  0  0
  8 28  1  0  0  0  0
  8 29  1  0  0  0  0
 10 30  1  0  0  0  0
 10 31  1  0  0  0  0
 15 32  1  0  0  0  0
 15 33  1  0  0  0  0
 16 34  1  0  0  0  0
 16 35  1  0  0  0  0
 16 36  1  0  0  0  0
 18 37  1  0  0  0  0
 18 38  1  0  0  0  0
 19 39  1  0  0  0  0
 19 40  1  0  0  0  0
 19 41  1  0  0  0  0
M  END
