 xtb: 6.7.1 (edcfbbe)
          04092505213D

 41 40  0     0  0            999 V2000
    1.7831   -3.0567   -0.9908 C   0  0  0  0  0  0  0  0  0  0  0  0
    2.4914   -2.4255    0.1905 C   0  0  0  0  0  0  0  0  0  0  0  0
    1.9209   -1.1350    0.5039 O   0  0  0  0  0  0  0  0  0  0  0  0
    2.5511    0.2305   -0.0460 P   0  0  0  0  0  0  0  0  0  0  0  0
    3.4501    0.1288   -1.7788 S   0  0  0  0  0  0  0  0  0  0  0  0
    3.5553    0.7374    1.0696 O   0  0  0  0  0  0  0  0  0  0  0  0
    3.2229    0.8028    2.4795 C   0  0  0  0  0  0  0  0  0  0  0  0
    2.7798    2.1987    2.8686 C   0  0  0  0  0  0  0  0  0  0  0  0
    0.8584    1.4829    0.0815 S   0  0  0  0  0  0  0  0  0  0  0  0
    0.0588    0.8723   -1.4264 C   0  0  0  0  0  0  0  0  0  0  0  0
   -0.8868   -0.6402   -1.1672 S   0  0  0  0  0  0  0  0  0  0  0  0
   -2.6619    0.2380   -0.3547 P   0  0  0  0  0  0  0  0  0  0  0  0
   -2.8589    2.1640   -0.6561 S   0  0  0  0  0  0  0  0  0  0  0  0
   -2.7515   -0.1898    1.1762 O   0  0  0  0  0  0  0  0  0  0  0  0
   -1.9873    0.4346    2.2224 C   0  0  0  0  0  0  0  0  0  0  0  0
   -0.8681   -0.4820    2.6788 C   0  0  0  0  0  0  0  0  0  0  0  0
   -3.8438   -0.5781   -0.9906 O   0  0  0  0  0  0  0  0  0  0  0  0
   -3.8447   -1.9929   -1.3081 C   0  0  0  0  0  0  0  0  0  0  0  0
   -3.4725   -2.8603   -0.1259 C   0  0  0  0  0  0  0  0  0  0  0  0
    1.9511   -2.4650   -1.8879 H   0  0  0  0  0  0  0  0  0  0  0  0
    2.1748   -4.0562   -1.1485 H   0  0  0  0  0  0  0  0  0  0  0  0
    0.7142   -3.1088   -0.8055 H   0  0  0  0  0  0  0  0  0  0  0  0
    3.5592   -2.3057   -0.0151 H   0  0  0  0  0  0  0  0  0  0  0  0
    2.3533   -3.0139    1.0989 H   0  0  0  0  0  0  0  0  0  0  0  0
    2.4479    0.0643    2.6970 H   0  0  0  0  0  0  0  0  0  0  0  0
    4.1505    0.5288    2.9848 H   0  0  0  0  0  0  0  0  0  0  0  0
    3.5413    2.9220    2.5906 H   0  0  0  0  0  0  0  0  0  0  0  0
    1.8507    2.4613    2.3666 H   0  0  0  0  0  0  0  0  0  0  0  0
    2.6268    2.2357    3.9426 H   0  0  0  0  0  0  0  0  0  0  0  0
    0.8260    0.6567   -2.1709 H   0  0  0  0  0  0  0  0  0  0  0  0
   -0.6153    1.6615   -1.7623 H   0  0  0  0  0  0  0  0  0  0  0  0
   -1.6008    1.3958    1.8666 H   0  0  0  0  0  0  0  0  0  0  0  0
   -2.7017    0.6135    3.0286 H   0  0  0  0  0  0  0  0  0  0  0  0
   -0.1649   -0.6613    1.8689 H   0  0  0  0  0  0  0  0  0  0  0  0
   -0.3451   -0.0131    3.5063 H   0  0  0  0  0  0  0  0  0  0  0  0
   -1.2779   -1.4337    3.0045 H   0  0  0  0  0  0  0  0  0  0  0  0
   -4.8702   -2.1714   -1.6346 H   0  0  0  0  0  0  0  0  0  0  0  0
   -3.1563   -2.1526   -2.1417 H   0  0  0  0  0  0  0  0  0  0  0  0
   -3.5817   -3.9039   -0.4041 H   0  0  0  0  0  0  0  0  0  0  0  0
   -2.4392   -2.6763    0.1613 H   0  0  0  0  0  0  0  0  0  0  0  0
   -4.1190   -2.6417    0.7199 H   0  0  0  0  0  0  0  0  0  0  0  0
  1  2  1  0  0  0  0
  2  3  1  0  0  0  0
  3  4  1  0  0  0  0
  4  5  2  0  0  0  0
  4  6  2  0  0  0  0
  6  7  1  0  0  0  0
  7  8  1  0  0  0  0
  4  9  1  0  0  0  0
  9 10  1  0  0  0  0
 10 11  1  0  0  0  0
 11 12  1  0  0  0  0
 12 13  2  0  0  0  0
 12 14  2  0  0  0  0
 14 15  1  0  0  0  0
 15 16  1  0  0  0  0
 12 17  2  0  0  0  0
 17 18  1  0  0  0  0
 18 19  1  0  0  0  0
  1 20  1  0  0  0  0
  1 21  1  0  0  0  0
  1 22  1  0  0  0  0
  2 23  1  0  0  0  0
  2 24  1  0  0  0  0
  7 25  1  0  0  0  0
  7 26  1  0  0  0  0
  8 27  1  0  0  0  0
  8 28  1  0  0  0  0
  8 29  1  0  0  0  0
 10 30  1  0  0  0  0
 10 31  1  0  0  0  0
 15 32  1  0  0  0  0
 15 33  1  0  0  0  0
 16 34  1  0  0  0  0
 16 35  1  0  0  0  0
 16 36  1  0  0  0  0
 18 37  1  0  0  0  0
 18 38  1  0  0  0  0
 19 39  1  0  0  0  0
 19 40  1  0  0  0  0
 19 41  1  0  0  0  0
M  END
