 xtb: 6.7.1 (edcfbbe)
          04092505203D

 41 40  0     0  0            999 V2000
    2.9383   -2.4838    2.2030 C   0  0  0  0  0  0  0  0  0  0  0  0
    1.6170   -2.2828    1.4920 C   0  0  0  0  0  0  0  0  0  0  0  0
    1.3880   -0.8945    1.1721 O   0  0  0  0  0  0  0  0  0  0  0  0
    2.2544   -0.1243    0.0900 P   0  0  0  0  0  0  0  0  0  0  0  0
    2.9201   -1.2007   -1.4128 S   0  0  0  0  0  0  0  0  0  0  0  0
    3.3722    0.5476    0.9955 O   0  0  0  0  0  0  0  0  0  0  0  0
    4.5754    1.1124    0.4475 C   0  0  0  0  0  0  0  0  0  0  0  0
    4.3009    2.3613   -0.3653 C   0  0  0  0  0  0  0  0  0  0  0  0
    0.9243    1.4526   -0.3692 S   0  0  0  0  0  0  0  0  0  0  0  0
    0.0195    0.5691   -1.6704 C   0  0  0  0  0  0  0  0  0  0  0  0
   -0.9537   -0.8175   -1.0452 S   0  0  0  0  0  0  0  0  0  0  0  0
   -2.6619    0.2767   -0.3561 P   0  0  0  0  0  0  0  0  0  0  0  0
   -2.8683    2.0770   -1.0960 S   0  0  0  0  0  0  0  0  0  0  0  0
   -2.6617    0.1376    1.2303 O   0  0  0  0  0  0  0  0  0  0  0  0
   -1.6538    0.6101    2.1378 C   0  0  0  0  0  0  0  0  0  0  0  0
   -1.6256    2.1214    2.2477 C   0  0  0  0  0  0  0  0  0  0  0  0
   -3.9042   -0.6029   -0.7454 O   0  0  0  0  0  0  0  0  0  0  0  0
   -3.9836   -2.0496   -0.7705 C   0  0  0  0  0  0  0  0  0  0  0  0
   -3.5457   -2.6960    0.5256 C   0  0  0  0  0  0  0  0  0  0  0  0
    3.0258   -3.5198    2.5151 H   0  0  0  0  0  0  0  0  0  0  0  0
    3.7607   -2.2472    1.5289 H   0  0  0  0  0  0  0  0  0  0  0  0
    2.9994   -1.8352    3.0729 H   0  0  0  0  0  0  0  0  0  0  0  0
    0.7707   -2.5493    2.1264 H   0  0  0  0  0  0  0  0  0  0  0  0
    1.5813   -2.8609    0.5631 H   0  0  0  0  0  0  0  0  0  0  0  0
    5.1866    1.3290    1.3247 H   0  0  0  0  0  0  0  0  0  0  0  0
    5.0646    0.3524   -0.1703 H   0  0  0  0  0  0  0  0  0  0  0  0
    3.7172    3.0706    0.2163 H   0  0  0  0  0  0  0  0  0  0  0  0
    5.2424    2.8182   -0.6529 H   0  0  0  0  0  0  0  0  0  0  0  0
    3.7438    2.1061   -1.2661 H   0  0  0  0  0  0  0  0  0  0  0  0
    0.7293    0.1551   -2.3859 H   0  0  0  0  0  0  0  0  0  0  0  0
   -0.6461    1.2981   -2.1349 H   0  0  0  0  0  0  0  0  0  0  0  0
   -1.9339    0.1533    3.0893 H   0  0  0  0  0  0  0  0  0  0  0  0
   -0.6789    0.2254    1.8229 H   0  0  0  0  0  0  0  0  0  0  0  0
   -0.9264    2.4084    3.0265 H   0  0  0  0  0  0  0  0  0  0  0  0
   -1.3073    2.5697    1.3085 H   0  0  0  0  0  0  0  0  0  0  0  0
   -2.6153    2.4983    2.4932 H   0  0  0  0  0  0  0  0  0  0  0  0
   -5.0392   -2.2341   -0.9759 H   0  0  0  0  0  0  0  0  0  0  0  0
   -3.3756   -2.4042   -1.6066 H   0  0  0  0  0  0  0  0  0  0  0  0
   -3.7372   -3.7632    0.4690 H   0  0  0  0  0  0  0  0  0  0  0  0
   -2.4804   -2.5377    0.6833 H   0  0  0  0  0  0  0  0  0  0  0  0
   -4.0965   -2.2742    1.3621 H   0  0  0  0  0  0  0  0  0  0  0  0
  1  2  1  0  0  0  0
  2  3  1  0  0  0  0
  3  4  2  0  0  0  0
  4  5  2  0  0  0  0
  4  6  2  0  0  0  0
  6  7  1  0  0  0  0
  7  8  1  0  0  0  0
  4  9  1  0  0  0  0
  9 10  1  0  0  0  0
 10 11  1  0  0  0  0
 11 12  1  0  0  0  0
 12 13  2  0  0  0  0
 12 14  2  0  0  0  0
 14 15  1  0  0  0  0
 15 16  1  0  0  0  0
 12 17  2  0  0  0  0
 17 18  1  0  0  0  0
 18 19  1  0  0  0  0
  1 20  1  0  0  0  0
  1 21  1  0  0  0  0
  1 22  1  0  0  0  0
  2 23  1  0  0  0  0
  2 24  1  0  0  0  0
  7 25  1  0  0  0  0
  7 26  1  0  0  0  0
  8 27  1  0  0  0  0
  8 28  1  0  0  0  0
  8 29  1  0  0  0  0
 10 30  1  0  0  0  0
 10 31  1  0  0  0  0
 15 32  1  0  0  0  0
 15 33  1  0  0  0  0
 16 34  1  0  0  0  0
 16 35  1  0  0  0  0
 16 36  1  0  0  0  0
 18 37  1  0  0  0  0
 18 38  1  0  0  0  0
 19 39  1  0  0  0  0
 19 40  1  0  0  0  0
 19 41  1  0  0  0  0
M  END
