 xtb: 6.7.1 (edcfbbe)
          04032519423D

 20 20  0     0  0            999 V2000
    0.5964    1.4402    0.0630 C   0  0  0  0  0  0  0  0  0  0  0  0
    1.5274    0.2098    0.0415 C   0  0  0  0  0  0  0  0  0  0  0  0
    2.3199    0.3477   -0.6998 H   0  0  0  0  0  0  0  0  0  0  0  0
    0.7374   -1.0558   -0.3646 C   0  0  0  0  0  0  0  0  0  0  0  0
    1.2083   -1.9055    0.1485 H   0  0  0  0  0  0  0  0  0  0  0  0
   -0.7116   -0.9290    0.1339 C   0  0  0  0  0  0  0  0  0  0  0  0
   -1.2889   -1.8249   -0.1415 H   0  0  0  0  0  0  0  0  0  0  0  0
   -1.3745    0.2882   -0.5516 C   0  0  0  0  0  0  0  0  0  0  0  0
   -1.7924   -0.0191   -1.5213 H   0  0  0  0  0  0  0  0  0  0  0  0
   -0.4663    1.3095   -0.8652 O   0  0  0  0  0  0  0  0  0  0  0  0
   -2.3844    0.7389    0.3045 O   0  0  0  0  0  0  0  0  0  0  0  0
   -0.6697   -0.8007    1.5317 O   0  0  0  0  0  0  0  0  0  0  0  0
    0.8011   -1.2055   -1.7596 O   0  0  0  0  0  0  0  0  0  0  0  0
    2.1701    0.0386    1.2768 O   0  0  0  0  0  0  0  0  0  0  0  0
    1.1316    2.3420   -0.2305 H   0  0  0  0  0  0  0  0  0  0  0  0
    0.1992    1.5686    1.0776 H   0  0  0  0  0  0  0  0  0  0  0  0
   -2.8082    1.5240   -0.0718 H   0  0  0  0  0  0  0  0  0  0  0  0
   -1.5351   -0.4754    1.8296 H   0  0  0  0  0  0  0  0  0  0  0  0
    0.5498   -2.1066   -2.0081 H   0  0  0  0  0  0  0  0  0  0  0  0
    1.4973   -0.1773    1.9436 H   0  0  0  0  0  0  0  0  0  0  0  0
  1  2  1  0  0  0  0
  2  3  1  0  0  0  0
  2  4  1  0  0  0  0
  4  5  1  0  0  0  0
  4  6  1  0  0  0  0
  6  7  1  0  0  0  0
  6  8  1  0  0  0  0
  8  9  1  0  0  0  0
  1 10  1  0  0  0  0
  8 10  1  0  0  0  0
  8 11  1  0  0  0  0
  6 12  1  0  0  0  0
  4 13  1  0  0  0  0
  2 14  1  0  0  0  0
  1 15  1  0  0  0  0
  1 16  1  0  0  0  0
 11 17  1  0  0  0  0
 12 18  1  0  0  0  0
 13 19  1  0  0  0  0
 14 20  1  0  0  0  0
M  END
