 xtb: 6.7.1 (edcfbbe)
          04092505203D

 41 40  0     0  0            999 V2000
    5.7035    0.2422   -1.4063 C   0  0  0  0  0  0  0  0  0  0  0  0
    4.2056    0.0988   -1.5819 C   0  0  0  0  0  0  0  0  0  0  0  0
    3.5907    0.2764   -0.2900 O   0  0  0  0  0  0  0  0  0  0  0  0
    2.0185    0.4756   -0.1554 P   0  0  0  0  0  0  0  0  0  0  0  0
    1.2862    1.9423   -1.2265 S   0  0  0  0  0  0  0  0  0  0  0  0
    1.8581    0.7464    1.3839 O   0  0  0  0  0  0  0  0  0  0  0  0
    2.6493    0.1419    2.4372 C   0  0  0  0  0  0  0  0  0  0  0  0
    2.5812   -1.3693    2.4276 C   0  0  0  0  0  0  0  0  0  0  0  0
    1.2502   -1.4527   -0.6648 S   0  0  0  0  0  0  0  0  0  0  0  0
   -0.0666   -1.0011   -1.8296 C   0  0  0  0  0  0  0  0  0  0  0  0
   -1.7263   -1.5103   -1.3070 S   0  0  0  0  0  0  0  0  0  0  0  0
   -2.0628   -0.2856    0.3697 P   0  0  0  0  0  0  0  0  0  0  0  0
   -1.0553   -0.5357    2.0222 S   0  0  0  0  0  0  0  0  0  0  0  0
   -3.6044   -0.4979    0.6704 O   0  0  0  0  0  0  0  0  0  0  0  0
   -4.6449   -0.3489   -0.3270 C   0  0  0  0  0  0  0  0  0  0  0  0
   -5.1530   -1.7068   -0.7674 C   0  0  0  0  0  0  0  0  0  0  0  0
   -1.8946    1.1476   -0.3294 O   0  0  0  0  0  0  0  0  0  0  0  0
   -1.6812    2.3387    0.4448 C   0  0  0  0  0  0  0  0  0  0  0  0
   -2.9375    2.7619    1.1764 C   0  0  0  0  0  0  0  0  0  0  0  0
    6.1880    0.1068   -2.3675 H   0  0  0  0  0  0  0  0  0  0  0  0
    5.9417    1.2297   -1.0210 H   0  0  0  0  0  0  0  0  0  0  0  0
    6.0705   -0.5061   -0.7100 H   0  0  0  0  0  0  0  0  0  0  0  0
    3.9391   -0.8945   -1.9540 H   0  0  0  0  0  0  0  0  0  0  0  0
    3.8061    0.8567   -2.2638 H   0  0  0  0  0  0  0  0  0  0  0  0
    3.6770    0.4926    2.3256 H   0  0  0  0  0  0  0  0  0  0  0  0
    2.2041    0.5530    3.3444 H   0  0  0  0  0  0  0  0  0  0  0  0
    3.0158   -1.7649    1.5107 H   0  0  0  0  0  0  0  0  0  0  0  0
    3.1356   -1.7541    3.2776 H   0  0  0  0  0  0  0  0  0  0  0  0
    1.5463   -1.6971    2.4992 H   0  0  0  0  0  0  0  0  0  0  0  0
    0.1095   -1.5398   -2.7575 H   0  0  0  0  0  0  0  0  0  0  0  0
   -0.0404    0.0811   -1.9872 H   0  0  0  0  0  0  0  0  0  0  0  0
   -5.4286    0.2210    0.1755 H   0  0  0  0  0  0  0  0  0  0  0  0
   -4.2536    0.2244   -1.1712 H   0  0  0  0  0  0  0  0  0  0  0  0
   -4.3641   -2.2645   -1.2676 H   0  0  0  0  0  0  0  0  0  0  0  0
   -5.4893   -2.2738    0.0962 H   0  0  0  0  0  0  0  0  0  0  0  0
   -5.9830   -1.5694   -1.4531 H   0  0  0  0  0  0  0  0  0  0  0  0
   -0.8628    2.1536    1.1504 H   0  0  0  0  0  0  0  0  0  0  0  0
   -1.3596    3.0794   -0.2896 H   0  0  0  0  0  0  0  0  0  0  0  0
   -2.7468    3.6909    1.7045 H   0  0  0  0  0  0  0  0  0  0  0  0
   -3.7524    2.9080    0.4721 H   0  0  0  0  0  0  0  0  0  0  0  0
   -3.2194    1.9953    1.8979 H   0  0  0  0  0  0  0  0  0  0  0  0
  1  2  1  0  0  0  0
  2  3  1  0  0  0  0
  3  4  2  0  0  0  0
  4  5  2  0  0  0  0
  4  6  2  0  0  0  0
  6  7  1  0  0  0  0
  7  8  1  0  0  0  0
  4  9  1  0  0  0  0
  9 10  1  0  0  0  0
 10 11  1  0  0  0  0
 11 12  1  0  0  0  0
 12 13  2  0  0  0  0
 12 14  2  0  0  0  0
 14 15  1  0  0  0  0
 15 16  1  0  0  0  0
 12 17  1  0  0  0  0
 17 18  1  0  0  0  0
 18 19  1  0  0  0  0
  1 20  1  0  0  0  0
  1 21  1  0  0  0  0
  1 22  1  0  0  0  0
  2 23  1  0  0  0  0
  2 24  1  0  0  0  0
  7 25  1  0  0  0  0
  7 26  1  0  0  0  0
  8 27  1  0  0  0  0
  8 28  1  0  0  0  0
  8 29  1  0  0  0  0
 10 30  1  0  0  0  0
 10 31  1  0  0  0  0
 15 32  1  0  0  0  0
 15 33  1  0  0  0  0
 16 34  1  0  0  0  0
 16 35  1  0  0  0  0
 16 36  1  0  0  0  0
 18 37  1  0  0  0  0
 18 38  1  0  0  0  0
 19 39  1  0  0  0  0
 19 40  1  0  0  0  0
 19 41  1  0  0  0  0
M  END
