 xtb: 6.7.1 (edcfbbe)
          04092507313D

 38 37  0     0  0            999 V2000
    4.0670   -3.5605    0.6656 C   0  0  0  0  0  0  0  0  0  0  0  0
    2.9212   -2.5924    0.8805 C   0  0  0  0  0  0  0  0  0  0  0  0
    2.8800   -1.6970   -0.2503 O   0  0  0  0  0  0  0  0  0  0  0  0
    1.8385   -0.9215   -0.3911 C   0  0  0  0  0  0  0  0  0  0  0  0
    0.9032   -0.9022    0.3960 O   0  0  0  0  0  0  0  0  0  0  0  0
    1.9001   -0.0602   -1.6237 C   0  0  0  0  0  0  0  0  0  0  0  0
    0.7511    0.9330   -1.6354 C   0  0  0  0  0  0  0  0  0  0  0  0
    0.7646    1.5395   -2.5445 H   0  0  0  0  0  0  0  0  0  0  0  0
    0.7554    1.8622   -0.4320 C   0  0  0  0  0  0  0  0  0  0  0  0
    1.6079    1.8325    0.4281 O   0  0  0  0  0  0  0  0  0  0  0  0
   -0.2533    2.7023   -0.4778 O   0  0  0  0  0  0  0  0  0  0  0  0
   -0.3842    3.6815    0.5698 C   0  0  0  0  0  0  0  0  0  0  0  0
    0.4158    4.9314    0.2404 C   0  0  0  0  0  0  0  0  0  0  0  0
   -0.8830    0.1053   -1.7569 S   0  0  0  0  0  0  0  0  0  0  0  0
   -1.4857   -0.5331    0.1866 P   0  0  0  0  0  0  0  0  0  0  0  0
   -1.4697   -2.4384    0.6837 S   0  0  0  0  0  0  0  0  0  0  0  0
   -1.1000    0.5698    1.2676 O   0  0  0  0  0  0  0  0  0  0  0  0
   -0.4433    0.2775    2.5015 C   0  0  0  0  0  0  0  0  0  0  0  0
   -3.0226   -0.0509    0.0750 O   0  0  0  0  0  0  0  0  0  0  0  0
   -3.9410   -0.6988   -0.8038 C   0  0  0  0  0  0  0  0  0  0  0  0
    3.9026   -4.1391   -0.2383 H   0  0  0  0  0  0  0  0  0  0  0  0
    5.0005   -3.0145    0.5706 H   0  0  0  0  0  0  0  0  0  0  0  0
    4.1283   -4.2336    1.5140 H   0  0  0  0  0  0  0  0  0  0  0  0
    3.0622   -1.9906    1.7835 H   0  0  0  0  0  0  0  0  0  0  0  0
    1.9560   -3.1043    0.9539 H   0  0  0  0  0  0  0  0  0  0  0  0
    1.8490   -0.7030   -2.5043 H   0  0  0  0  0  0  0  0  0  0  0  0
    2.8590    0.4610   -1.6288 H   0  0  0  0  0  0  0  0  0  0  0  0
   -1.4539    3.8869    0.6150 H   0  0  0  0  0  0  0  0  0  0  0  0
   -0.0467    3.2352    1.5091 H   0  0  0  0  0  0  0  0  0  0  0  0
    1.4776    4.6981    0.2049 H   0  0  0  0  0  0  0  0  0  0  0  0
    0.1060    5.3307   -0.7212 H   0  0  0  0  0  0  0  0  0  0  0  0
    0.2444    5.6765    1.0101 H   0  0  0  0  0  0  0  0  0  0  0  0
    0.5814    0.6472    2.4473 H   0  0  0  0  0  0  0  0  0  0  0  0
   -0.4360   -0.7983    2.6848 H   0  0  0  0  0  0  0  0  0  0  0  0
   -1.0031    0.7914    3.2804 H   0  0  0  0  0  0  0  0  0  0  0  0
   -3.6982   -0.4650   -1.8415 H   0  0  0  0  0  0  0  0  0  0  0  0
   -4.9218   -0.3098   -0.5427 H   0  0  0  0  0  0  0  0  0  0  0  0
   -3.9063   -1.7797   -0.6508 H   0  0  0  0  0  0  0  0  0  0  0  0
  1  2  1  0  0  0  0
  2  3  1  0  0  0  0
  3  4  4  0  0  0  0
  4  5  2  0  0  0  0
  4  6  1  0  0  0  0
  6  7  1  0  0  0  0
  7  8  1  0  0  0  0
  7  9  1  0  0  0  0
  9 10  2  0  0  0  0
  9 11  4  0  0  0  0
 11 12  1  0  0  0  0
 12 13  1  0  0  0  0
  7 14  1  0  0  0  0
 14 15  1  0  0  0  0
 15 16  2  0  0  0  0
 15 17  1  0  0  0  0
 17 18  1  0  0  0  0
 15 19  1  0  0  0  0
 19 20  1  0  0  0  0
  1 21  1  0  0  0  0
  1 22  1  0  0  0  0
  1 23  1  0  0  0  0
  2 24  1  0  0  0  0
  2 25  1  0  0  0  0
  6 26  1  0  0  0  0
  6 27  1  0  0  0  0
 12 28  1  0  0  0  0
 12 29  1  0  0  0  0
 13 30  1  0  0  0  0
 13 31  1  0  0  0  0
 13 32  1  0  0  0  0
 18 33  1  0  0  0  0
 18 34  1  0  0  0  0
 18 35  1  0  0  0  0
 20 36  1  0  0  0  0
 20 37  1  0  0  0  0
 20 38  1  0  0  0  0
M  END
