 xtb: 6.7.1 (edcfbbe)
          04092505213D

 41 40  0     0  0            999 V2000
    5.4310   -0.4731   -0.7736 C   0  0  0  0  0  0  0  0  0  0  0  0
    4.1001   -0.0966   -1.3904 C   0  0  0  0  0  0  0  0  0  0  0  0
    3.2829    0.6344   -0.4390 O   0  0  0  0  0  0  0  0  0  0  0  0
    2.2033   -0.0449    0.4834 P   0  0  0  0  0  0  0  0  0  0  0  0
    1.4867    1.1912    1.8175 S   0  0  0  0  0  0  0  0  0  0  0  0
    2.9495   -1.3125    1.0781 O   0  0  0  0  0  0  0  0  0  0  0  0
    2.2962   -2.1720    2.0360 C   0  0  0  0  0  0  0  0  0  0  0  0
    3.3630   -3.0020    2.7206 C   0  0  0  0  0  0  0  0  0  0  0  0
    0.8156   -0.9744   -0.8608 S   0  0  0  0  0  0  0  0  0  0  0  0
    0.2377    0.5180   -1.7119 C   0  0  0  0  0  0  0  0  0  0  0  0
   -0.8567    1.5668   -0.7234 S   0  0  0  0  0  0  0  0  0  0  0  0
   -2.6108    0.3422   -0.7452 P   0  0  0  0  0  0  0  0  0  0  0  0
   -2.6062   -1.0647   -2.1047 S   0  0  0  0  0  0  0  0  0  0  0  0
   -3.8326    1.3042   -0.9894 O   0  0  0  0  0  0  0  0  0  0  0  0
   -4.3941    2.2355   -0.0330 C   0  0  0  0  0  0  0  0  0  0  0  0
   -3.4189    3.3245    0.3612 C   0  0  0  0  0  0  0  0  0  0  0  0
   -2.8547   -0.0682    0.7756 O   0  0  0  0  0  0  0  0  0  0  0  0
   -1.9430   -0.7883    1.6179 C   0  0  0  0  0  0  0  0  0  0  0  0
   -1.8898   -2.2638    1.2759 C   0  0  0  0  0  0  0  0  0  0  0  0
    6.0479   -0.9521   -1.5276 H   0  0  0  0  0  0  0  0  0  0  0  0
    5.9367    0.4164   -0.4080 H   0  0  0  0  0  0  0  0  0  0  0  0
    5.2811   -1.1576    0.0566 H   0  0  0  0  0  0  0  0  0  0  0  0
    3.5528   -0.9825   -1.7231 H   0  0  0  0  0  0  0  0  0  0  0  0
    4.2314    0.5956   -2.2243 H   0  0  0  0  0  0  0  0  0  0  0  0
    1.7539   -1.5453    2.7517 H   0  0  0  0  0  0  0  0  0  0  0  0
    1.5847   -2.8011    1.4945 H   0  0  0  0  0  0  0  0  0  0  0  0
    3.9012   -3.5961    1.9878 H   0  0  0  0  0  0  0  0  0  0  0  0
    4.0660   -2.3542    3.2368 H   0  0  0  0  0  0  0  0  0  0  0  0
    2.8915   -3.6627    3.4404 H   0  0  0  0  0  0  0  0  0  0  0  0
   -0.3021    0.1632   -2.5901 H   0  0  0  0  0  0  0  0  0  0  0  0
    1.0872    1.1395   -1.9856 H   0  0  0  0  0  0  0  0  0  0  0  0
   -5.2562    2.6429   -0.5634 H   0  0  0  0  0  0  0  0  0  0  0  0
   -4.7259    1.6709    0.8401 H   0  0  0  0  0  0  0  0  0  0  0  0
   -3.0428    3.8361   -0.5213 H   0  0  0  0  0  0  0  0  0  0  0  0
   -3.9259    4.0407    1.0004 H   0  0  0  0  0  0  0  0  0  0  0  0
   -2.5742    2.9053    0.9067 H   0  0  0  0  0  0  0  0  0  0  0  0
   -0.9519   -0.3257    1.5515 H   0  0  0  0  0  0  0  0  0  0  0  0
   -2.3381   -0.6298    2.6235 H   0  0  0  0  0  0  0  0  0  0  0  0
   -2.8916   -2.6849    1.2921 H   0  0  0  0  0  0  0  0  0  0  0  0
   -1.4684   -2.4132    0.2836 H   0  0  0  0  0  0  0  0  0  0  0  0
   -1.2721   -2.7766    2.0065 H   0  0  0  0  0  0  0  0  0  0  0  0
  1  2  1  0  0  0  0
  2  3  1  0  0  0  0
  3  4  2  0  0  0  0
  4  5  2  0  0  0  0
  4  6  2  0  0  0  0
  6  7  1  0  0  0  0
  7  8  1  0  0  0  0
  4  9  1  0  0  0  0
  9 10  1  0  0  0  0
 10 11  1  0  0  0  0
 11 12  1  0  0  0  0
 12 13  2  0  0  0  0
 12 14  2  0  0  0  0
 14 15  1  0  0  0  0
 15 16  1  0  0  0  0
 12 17  2  0  0  0  0
 17 18  1  0  0  0  0
 18 19  1  0  0  0  0
  1 20  1  0  0  0  0
  1 21  1  0  0  0  0
  1 22  1  0  0  0  0
  2 23  1  0  0  0  0
  2 24  1  0  0  0  0
  7 25  1  0  0  0  0
  7 26  1  0  0  0  0
  8 27  1  0  0  0  0
  8 28  1  0  0  0  0
  8 29  1  0  0  0  0
 10 30  1  0  0  0  0
 10 31  1  0  0  0  0
 15 32  1  0  0  0  0
 15 33  1  0  0  0  0
 16 34  1  0  0  0  0
 16 35  1  0  0  0  0
 16 36  1  0  0  0  0
 18 37  1  0  0  0  0
 18 38  1  0  0  0  0
 19 39  1  0  0  0  0
 19 40  1  0  0  0  0
 19 41  1  0  0  0  0
M  END
