 xtb: 6.7.1 (edcfbbe)
          04092507313D

 38 37  0     0  0            999 V2000
    5.6575   -1.4256   -0.2452 C   0  0  0  0  0  0  0  0  0  0  0  0
    4.8132   -1.6773   -1.4841 C   0  0  0  0  0  0  0  0  0  0  0  0
    3.4783   -2.0853   -1.1216 O   0  0  0  0  0  0  0  0  0  0  0  0
    2.5845   -1.1568   -0.8623 C   0  0  0  0  0  0  0  0  0  0  0  0
    2.7827    0.0387   -0.9477 O   0  0  0  0  0  0  0  0  0  0  0  0
    1.2626   -1.7534   -0.4294 C   0  0  0  0  0  0  0  0  0  0  0  0
    0.1944   -0.6754   -0.4956 C   0  0  0  0  0  0  0  0  0  0  0  0
   -0.0647   -0.4077   -1.5245 H   0  0  0  0  0  0  0  0  0  0  0  0
    0.6033    0.5918    0.2313 C   0  0  0  0  0  0  0  0  0  0  0  0
    0.3414    1.6988   -0.1879 O   0  0  0  0  0  0  0  0  0  0  0  0
    1.1367    0.3318    1.4066 O   0  0  0  0  0  0  0  0  0  0  0  0
    1.5781    1.4355    2.2207 C   0  0  0  0  0  0  0  0  0  0  0  0
    3.0751    1.6395    2.0557 C   0  0  0  0  0  0  0  0  0  0  0  0
   -1.3319   -1.2305    0.3369 S   0  0  0  0  0  0  0  0  0  0  0  0
   -2.5126    0.4805   -0.1094 P   0  0  0  0  0  0  0  0  0  0  0  0
   -2.3851    1.1630   -1.9354 S   0  0  0  0  0  0  0  0  0  0  0  0
   -3.9679   -0.0200    0.3158 O   0  0  0  0  0  0  0  0  0  0  0  0
   -4.6722   -0.9910   -0.4698 C   0  0  0  0  0  0  0  0  0  0  0  0
   -2.2343    1.5538    1.0196 O   0  0  0  0  0  0  0  0  0  0  0  0
   -2.4585    1.2656    2.4168 C   0  0  0  0  0  0  0  0  0  0  0  0
    5.6607   -2.3067    0.3903 H   0  0  0  0  0  0  0  0  0  0  0  0
    6.6744   -1.1958   -0.5452 H   0  0  0  0  0  0  0  0  0  0  0  0
    5.2574   -0.5832    0.3147 H   0  0  0  0  0  0  0  0  0  0  0  0
    5.2010   -2.5114   -2.0687 H   0  0  0  0  0  0  0  0  0  0  0  0
    4.7482   -0.7760   -2.1003 H   0  0  0  0  0  0  0  0  0  0  0  0
    1.3728   -2.1071    0.5985 H   0  0  0  0  0  0  0  0  0  0  0  0
    1.0101   -2.6046   -1.0600 H   0  0  0  0  0  0  0  0  0  0  0  0
    1.0249    2.3300    1.9202 H   0  0  0  0  0  0  0  0  0  0  0  0
    1.3241    1.1503    3.2426 H   0  0  0  0  0  0  0  0  0  0  0  0
    3.3070    1.8103    1.0059 H   0  0  0  0  0  0  0  0  0  0  0  0
    3.3896    2.5008    2.6354 H   0  0  0  0  0  0  0  0  0  0  0  0
    3.6131    0.7590    2.3961 H   0  0  0  0  0  0  0  0  0  0  0  0
   -5.7034   -0.9499   -0.1289 H   0  0  0  0  0  0  0  0  0  0  0  0
   -4.2469   -1.9791   -0.2985 H   0  0  0  0  0  0  0  0  0  0  0  0
   -4.6079   -0.7336   -1.5279 H   0  0  0  0  0  0  0  0  0  0  0  0
   -1.9659    0.3319    2.6911 H   0  0  0  0  0  0  0  0  0  0  0  0
   -3.5273    1.1931    2.6062 H   0  0  0  0  0  0  0  0  0  0  0  0
   -2.0250    2.1060    2.9529 H   0  0  0  0  0  0  0  0  0  0  0  0
  1  2  1  0  0  0  0
  2  3  1  0  0  0  0
  3  4  4  0  0  0  0
  4  5  2  0  0  0  0
  4  6  1  0  0  0  0
  6  7  1  0  0  0  0
  7  8  1  0  0  0  0
  7  9  1  0  0  0  0
  9 10  2  0  0  0  0
  9 11  1  0  0  0  0
 11 12  1  0  0  0  0
 12 13  1  0  0  0  0
  7 14  1  0  0  0  0
 14 15  1  0  0  0  0
 15 16  2  0  0  0  0
 15 17  2  0  0  0  0
 17 18  1  0  0  0  0
 15 19  2  0  0  0  0
 19 20  1  0  0  0  0
  1 21  1  0  0  0  0
  1 22  1  0  0  0  0
  1 23  1  0  0  0  0
  2 24  1  0  0  0  0
  2 25  1  0  0  0  0
  6 26  1  0  0  0  0
  6 27  1  0  0  0  0
 12 28  1  0  0  0  0
 12 29  1  0  0  0  0
 13 30  1  0  0  0  0
 13 31  1  0  0  0  0
 13 32  1  0  0  0  0
 18 33  1  0  0  0  0
 18 34  1  0  0  0  0
 18 35  1  0  0  0  0
 20 36  1  0  0  0  0
 20 37  1  0  0  0  0
 20 38  1  0  0  0  0
M  END
