 xtb: 6.7.1 (edcfbbe)
          04092505213D

 41 40  0     0  0            999 V2000
    4.0328   -1.3395   -2.5784 C   0  0  0  0  0  0  0  0  0  0  0  0
    4.0606    0.0606   -2.0014 C   0  0  0  0  0  0  0  0  0  0  0  0
    3.4194    0.1374   -0.7134 O   0  0  0  0  0  0  0  0  0  0  0  0
    1.8608   -0.0850   -0.5154 P   0  0  0  0  0  0  0  0  0  0  0  0
    0.7166    0.7054   -1.8857 S   0  0  0  0  0  0  0  0  0  0  0  0
    1.6015    0.5080    0.9231 O   0  0  0  0  0  0  0  0  0  0  0  0
    2.3445    0.1146    2.1040 C   0  0  0  0  0  0  0  0  0  0  0  0
    3.4695    1.0893    2.3800 C   0  0  0  0  0  0  0  0  0  0  0  0
    1.6477   -2.1860   -0.2856 S   0  0  0  0  0  0  0  0  0  0  0  0
   -0.1595   -2.1875   -0.2788 C   0  0  0  0  0  0  0  0  0  0  0  0
   -0.8755   -1.5253    1.2685 S   0  0  0  0  0  0  0  0  0  0  0  0
   -1.8580    0.2456    0.7099 P   0  0  0  0  0  0  0  0  0  0  0  0
   -1.1165    2.0624    0.8018 S   0  0  0  0  0  0  0  0  0  0  0  0
   -3.0199    0.0244    1.7838 O   0  0  0  0  0  0  0  0  0  0  0  0
   -3.7776    1.0945    2.3688 C   0  0  0  0  0  0  0  0  0  0  0  0
   -4.8077    1.6393    1.3994 C   0  0  0  0  0  0  0  0  0  0  0  0
   -2.4551   -0.2017   -0.6956 O   0  0  0  0  0  0  0  0  0  0  0  0
   -2.8292    0.6887   -1.7669 C   0  0  0  0  0  0  0  0  0  0  0  0
   -2.6387   -0.0376   -3.0823 C   0  0  0  0  0  0  0  0  0  0  0  0
    4.4099   -2.0559   -1.8530 H   0  0  0  0  0  0  0  0  0  0  0  0
    3.0144   -1.6140   -2.8468 H   0  0  0  0  0  0  0  0  0  0  0  0
    4.6512   -1.3683   -3.4698 H   0  0  0  0  0  0  0  0  0  0  0  0
    3.5646    0.7662   -2.6748 H   0  0  0  0  0  0  0  0  0  0  0  0
    5.0799    0.3942   -1.8015 H   0  0  0  0  0  0  0  0  0  0  0  0
    1.6013    0.1228    2.9047 H   0  0  0  0  0  0  0  0  0  0  0  0
    2.7211   -0.9026    1.9621 H   0  0  0  0  0  0  0  0  0  0  0  0
    3.0733    2.0986    2.4575 H   0  0  0  0  0  0  0  0  0  0  0  0
    3.9493    0.8184    3.3152 H   0  0  0  0  0  0  0  0  0  0  0  0
    4.2009    1.0594    1.5767 H   0  0  0  0  0  0  0  0  0  0  0  0
   -0.4679   -3.2267   -0.3507 H   0  0  0  0  0  0  0  0  0  0  0  0
   -0.5268   -1.6017   -1.1217 H   0  0  0  0  0  0  0  0  0  0  0  0
   -4.2439    0.6412    3.2445 H   0  0  0  0  0  0  0  0  0  0  0  0
   -3.0870    1.8856    2.6787 H   0  0  0  0  0  0  0  0  0  0  0  0
   -5.4296    0.8325    1.0201 H   0  0  0  0  0  0  0  0  0  0  0  0
   -5.4314    2.3683    1.9069 H   0  0  0  0  0  0  0  0  0  0  0  0
   -4.3028    2.1270    0.5656 H   0  0  0  0  0  0  0  0  0  0  0  0
   -3.8762    0.9617   -1.6151 H   0  0  0  0  0  0  0  0  0  0  0  0
   -2.2065    1.5882   -1.7121 H   0  0  0  0  0  0  0  0  0  0  0  0
   -3.1738   -0.9827   -3.0643 H   0  0  0  0  0  0  0  0  0  0  0  0
   -3.0248    0.5823   -3.8844 H   0  0  0  0  0  0  0  0  0  0  0  0
   -1.5821   -0.2222   -3.2600 H   0  0  0  0  0  0  0  0  0  0  0  0
  1  2  1  0  0  0  0
  2  3  1  0  0  0  0
  3  4  2  0  0  0  0
  4  5  2  0  0  0  0
  4  6  2  0  0  0  0
  6  7  1  0  0  0  0
  7  8  1  0  0  0  0
  4  9  1  0  0  0  0
  9 10  1  0  0  0  0
 10 11  1  0  0  0  0
 11 12  1  0  0  0  0
 12 13  2  0  0  0  0
 12 14  1  0  0  0  0
 14 15  1  0  0  0  0
 15 16  1  0  0  0  0
 12 17  2  0  0  0  0
 17 18  1  0  0  0  0
 18 19  1  0  0  0  0
  1 20  1  0  0  0  0
  1 21  1  0  0  0  0
  1 22  1  0  0  0  0
  2 23  1  0  0  0  0
  2 24  1  0  0  0  0
  7 25  1  0  0  0  0
  7 26  1  0  0  0  0
  8 27  1  0  0  0  0
  8 28  1  0  0  0  0
  8 29  1  0  0  0  0
 10 30  1  0  0  0  0
 10 31  1  0  0  0  0
 15 32  1  0  0  0  0
 15 33  1  0  0  0  0
 16 34  1  0  0  0  0
 16 35  1  0  0  0  0
 16 36  1  0  0  0  0
 18 37  1  0  0  0  0
 18 38  1  0  0  0  0
 19 39  1  0  0  0  0
 19 40  1  0  0  0  0
 19 41  1  0  0  0  0
M  END
