 xtb: 6.7.1 (edcfbbe)
          04092505203D

 41 40  0     0  0            999 V2000
    2.6064   -3.0690    1.4873 C   0  0  0  0  0  0  0  0  0  0  0  0
    1.1817   -2.6312    1.2308 C   0  0  0  0  0  0  0  0  0  0  0  0
    1.0276   -1.8964   -0.0117 O   0  0  0  0  0  0  0  0  0  0  0  0
    1.8275   -0.6127   -0.4586 P   0  0  0  0  0  0  0  0  0  0  0  0
    0.9504    0.2856   -1.9656 S   0  0  0  0  0  0  0  0  0  0  0  0
    3.2692   -1.1928   -0.7876 O   0  0  0  0  0  0  0  0  0  0  0  0
    4.2166   -0.4962   -1.6132 C   0  0  0  0  0  0  0  0  0  0  0  0
    4.7102    0.7838   -0.9699 C   0  0  0  0  0  0  0  0  0  0  0  0
    2.1207    0.5554    1.2946 S   0  0  0  0  0  0  0  0  0  0  0  0
    0.5311    1.4091    1.2915 C   0  0  0  0  0  0  0  0  0  0  0  0
   -0.8709    0.2780    1.5746 S   0  0  0  0  0  0  0  0  0  0  0  0
   -2.1055    0.7444   -0.0971 P   0  0  0  0  0  0  0  0  0  0  0  0
   -1.7634    2.4461   -0.9934 S   0  0  0  0  0  0  0  0  0  0  0  0
   -3.5732    0.5887    0.5070 O   0  0  0  0  0  0  0  0  0  0  0  0
   -4.2840    1.6772    1.1238 C   0  0  0  0  0  0  0  0  0  0  0  0
   -3.6207    2.1589    2.3978 C   0  0  0  0  0  0  0  0  0  0  0  0
   -2.0483   -0.5168   -1.0421 O   0  0  0  0  0  0  0  0  0  0  0  0
   -2.4394   -1.8370   -0.5852 C   0  0  0  0  0  0  0  0  0  0  0  0
   -1.8852   -2.8490   -1.5651 C   0  0  0  0  0  0  0  0  0  0  0  0
    2.9887   -3.6270    0.6368 H   0  0  0  0  0  0  0  0  0  0  0  0
    3.2438   -2.2038    1.6565 H   0  0  0  0  0  0  0  0  0  0  0  0
    2.6254   -3.7003    2.3704 H   0  0  0  0  0  0  0  0  0  0  0  0
    0.8112   -2.0015    2.0452 H   0  0  0  0  0  0  0  0  0  0  0  0
    0.5169   -3.4856    1.0943 H   0  0  0  0  0  0  0  0  0  0  0  0
    5.0240   -1.2177   -1.7460 H   0  0  0  0  0  0  0  0  0  0  0  0
    3.7446   -0.2835   -2.5777 H   0  0  0  0  0  0  0  0  0  0  0  0
    5.0668    0.5895    0.0384 H   0  0  0  0  0  0  0  0  0  0  0  0
    5.5183    1.1956   -1.5659 H   0  0  0  0  0  0  0  0  0  0  0  0
    3.9023    1.5127   -0.9242 H   0  0  0  0  0  0  0  0  0  0  0  0
    0.3746    1.9163    0.3352 H   0  0  0  0  0  0  0  0  0  0  0  0
    0.5690    2.1203    2.1126 H   0  0  0  0  0  0  0  0  0  0  0  0
   -4.3571    2.4929    0.3981 H   0  0  0  0  0  0  0  0  0  0  0  0
   -5.2735    1.2603    1.3166 H   0  0  0  0  0  0  0  0  0  0  0  0
   -4.2682    2.8816    2.8838 H   0  0  0  0  0  0  0  0  0  0  0  0
   -3.4386    1.3250    3.0710 H   0  0  0  0  0  0  0  0  0  0  0  0
   -2.6728    2.6403    2.1620 H   0  0  0  0  0  0  0  0  0  0  0  0
   -2.0361   -1.9880    0.4213 H   0  0  0  0  0  0  0  0  0  0  0  0
   -3.5301   -1.8651   -0.5455 H   0  0  0  0  0  0  0  0  0  0  0  0
   -0.8008   -2.7766   -1.6000 H   0  0  0  0  0  0  0  0  0  0  0  0
   -2.1736   -3.8467   -1.2504 H   0  0  0  0  0  0  0  0  0  0  0  0
   -2.2753   -2.6544   -2.5602 H   0  0  0  0  0  0  0  0  0  0  0  0
  1  2  1  0  0  0  0
  2  3  1  0  0  0  0
  3  4  2  0  0  0  0
  4  5  2  0  0  0  0
  4  6  2  0  0  0  0
  6  7  1  0  0  0  0
  7  8  1  0  0  0  0
  4  9  1  0  0  0  0
  9 10  1  0  0  0  0
 10 11  1  0  0  0  0
 11 12  1  0  0  0  0
 12 13  2  0  0  0  0
 12 14  2  0  0  0  0
 14 15  1  0  0  0  0
 15 16  1  0  0  0  0
 12 17  2  0  0  0  0
 17 18  1  0  0  0  0
 18 19  1  0  0  0  0
  1 20  1  0  0  0  0
  1 21  1  0  0  0  0
  1 22  1  0  0  0  0
  2 23  1  0  0  0  0
  2 24  1  0  0  0  0
  7 25  1  0  0  0  0
  7 26  1  0  0  0  0
  8 27  1  0  0  0  0
  8 28  1  0  0  0  0
  8 29  1  0  0  0  0
 10 30  1  0  0  0  0
 10 31  1  0  0  0  0
 15 32  1  0  0  0  0
 15 33  1  0  0  0  0
 16 34  1  0  0  0  0
 16 35  1  0  0  0  0
 16 36  1  0  0  0  0
 18 37  1  0  0  0  0
 18 38  1  0  0  0  0
 19 39  1  0  0  0  0
 19 40  1  0  0  0  0
 19 41  1  0  0  0  0
M  END
