 xtb: 6.7.1 (edcfbbe)
          04092505213D

 41 40  0     0  0            999 V2000
    3.2620    2.1802   -1.3189 C   0  0  0  0  0  0  0  0  0  0  0  0
    3.8067    1.9123    0.0686 C   0  0  0  0  0  0  0  0  0  0  0  0
    3.4882    0.5848    0.5196 O   0  0  0  0  0  0  0  0  0  0  0  0
    2.0015    0.1530    0.8756 P   0  0  0  0  0  0  0  0  0  0  0  0
    0.9627    1.5435    1.7854 S   0  0  0  0  0  0  0  0  0  0  0  0
    2.2044   -1.1441    1.7520 O   0  0  0  0  0  0  0  0  0  0  0  0
    3.4050   -1.9585    1.7843 C   0  0  0  0  0  0  0  0  0  0  0  0
    3.6634   -2.6820    0.4791 C   0  0  0  0  0  0  0  0  0  0  0  0
    1.2142   -0.5592   -0.9923 S   0  0  0  0  0  0  0  0  0  0  0  0
    0.0683   -1.8133   -0.3593 C   0  0  0  0  0  0  0  0  0  0  0  0
   -1.1415   -1.1714    0.8246 S   0  0  0  0  0  0  0  0  0  0  0  0
   -2.2861   -0.0233   -0.5552 P   0  0  0  0  0  0  0  0  0  0  0  0
   -2.3925   -0.7508   -2.3758 S   0  0  0  0  0  0  0  0  0  0  0  0
   -1.7459    1.4606   -0.4890 O   0  0  0  0  0  0  0  0  0  0  0  0
   -1.1178    2.1472   -1.5927 C   0  0  0  0  0  0  0  0  0  0  0  0
   -0.7559    3.5355   -1.1077 C   0  0  0  0  0  0  0  0  0  0  0  0
   -3.6338    0.2234    0.2354 O   0  0  0  0  0  0  0  0  0  0  0  0
   -4.3913   -0.7883    0.9249 C   0  0  0  0  0  0  0  0  0  0  0  0
   -4.7441   -1.9638    0.0365 C   0  0  0  0  0  0  0  0  0  0  0  0
    3.6030    1.4199   -2.0167 H   0  0  0  0  0  0  0  0  0  0  0  0
    2.1729    2.1688   -1.2942 H   0  0  0  0  0  0  0  0  0  0  0  0
    3.5951    3.1563   -1.6559 H   0  0  0  0  0  0  0  0  0  0  0  0
    3.3986    2.6295    0.7880 H   0  0  0  0  0  0  0  0  0  0  0  0
    4.8968    1.9416    0.0891 H   0  0  0  0  0  0  0  0  0  0  0  0
    4.2464   -1.3127    2.0400 H   0  0  0  0  0  0  0  0  0  0  0  0
    3.2082   -2.6547    2.6010 H   0  0  0  0  0  0  0  0  0  0  0  0
    2.8391   -3.3452    0.2293 H   0  0  0  0  0  0  0  0  0  0  0  0
    3.8008   -1.9669   -0.3289 H   0  0  0  0  0  0  0  0  0  0  0  0
    4.5680   -3.2736    0.5821 H   0  0  0  0  0  0  0  0  0  0  0  0
    0.6163   -2.5943    0.1609 H   0  0  0  0  0  0  0  0  0  0  0  0
   -0.4520   -2.2033   -1.2358 H   0  0  0  0  0  0  0  0  0  0  0  0
   -0.2305    1.5877   -1.9053 H   0  0  0  0  0  0  0  0  0  0  0  0
   -1.8210    2.1767   -2.4295 H   0  0  0  0  0  0  0  0  0  0  0  0
   -0.1088    3.4626   -0.2365 H   0  0  0  0  0  0  0  0  0  0  0  0
   -0.2430    4.0690   -1.9010 H   0  0  0  0  0  0  0  0  0  0  0  0
   -1.6538    4.0768   -0.8252 H   0  0  0  0  0  0  0  0  0  0  0  0
   -3.8149   -1.1162    1.7950 H   0  0  0  0  0  0  0  0  0  0  0  0
   -5.2842   -0.2553    1.2565 H   0  0  0  0  0  0  0  0  0  0  0  0
   -5.3901   -2.6450    0.5810 H   0  0  0  0  0  0  0  0  0  0  0  0
   -5.2553   -1.6198   -0.8595 H   0  0  0  0  0  0  0  0  0  0  0  0
   -3.8407   -2.4932   -0.2635 H   0  0  0  0  0  0  0  0  0  0  0  0
  1  2  1  0  0  0  0
  2  3  1  0  0  0  0
  3  4  2  0  0  0  0
  4  5  2  0  0  0  0
  4  6  2  0  0  0  0
  6  7  1  0  0  0  0
  7  8  1  0  0  0  0
  4  9  1  0  0  0  0
  9 10  1  0  0  0  0
 10 11  1  0  0  0  0
 11 12  1  0  0  0  0
 12 13  2  0  0  0  0
 12 14  2  0  0  0  0
 14 15  1  0  0  0  0
 15 16  1  0  0  0  0
 12 17  2  0  0  0  0
 17 18  1  0  0  0  0
 18 19  1  0  0  0  0
  1 20  1  0  0  0  0
  1 21  1  0  0  0  0
  1 22  1  0  0  0  0
  2 23  1  0  0  0  0
  2 24  1  0  0  0  0
  7 25  1  0  0  0  0
  7 26  1  0  0  0  0
  8 27  1  0  0  0  0
  8 28  1  0  0  0  0
  8 29  1  0  0  0  0
 10 30  1  0  0  0  0
 10 31  1  0  0  0  0
 15 32  1  0  0  0  0
 15 33  1  0  0  0  0
 16 34  1  0  0  0  0
 16 35  1  0  0  0  0
 16 36  1  0  0  0  0
 18 37  1  0  0  0  0
 18 38  1  0  0  0  0
 19 39  1  0  0  0  0
 19 40  1  0  0  0  0
 19 41  1  0  0  0  0
M  END
