 xtb: 6.7.1 (edcfbbe)
          04092505213D

 41 40  0     0  0            999 V2000
    5.3977    0.8838    0.9370 C   0  0  0  0  0  0  0  0  0  0  0  0
    4.8005    0.4249   -0.3795 C   0  0  0  0  0  0  0  0  0  0  0  0
    3.7394   -0.5284   -0.1653 O   0  0  0  0  0  0  0  0  0  0  0  0
    2.2154   -0.1030   -0.0325 P   0  0  0  0  0  0  0  0  0  0  0  0
    1.7775    1.1799    1.3886 S   0  0  0  0  0  0  0  0  0  0  0  0
    1.4957   -1.5088    0.0601 O   0  0  0  0  0  0  0  0  0  0  0  0
    1.1956   -2.1335    1.3215 C   0  0  0  0  0  0  0  0  0  0  0  0
    2.4524   -2.6055    2.0199 C   0  0  0  0  0  0  0  0  0  0  0  0
    1.7364    0.4965   -1.9968 S   0  0  0  0  0  0  0  0  0  0  0  0
    0.0152    0.9584   -1.7099 C   0  0  0  0  0  0  0  0  0  0  0  0
   -1.0735   -0.5210   -1.7254 S   0  0  0  0  0  0  0  0  0  0  0  0
   -2.3524   -0.0586   -0.1261 P   0  0  0  0  0  0  0  0  0  0  0  0
   -3.8194   -1.3260    0.1524 S   0  0  0  0  0  0  0  0  0  0  0  0
   -2.8213    1.4568   -0.3248 O   0  0  0  0  0  0  0  0  0  0  0  0
   -4.0500    1.7791   -0.9979 C   0  0  0  0  0  0  0  0  0  0  0  0
   -3.9421    1.5695   -2.4946 C   0  0  0  0  0  0  0  0  0  0  0  0
   -1.2781    0.1098    1.0321 O   0  0  0  0  0  0  0  0  0  0  0  0
   -1.6217    0.6754    2.3201 C   0  0  0  0  0  0  0  0  0  0  0  0
   -2.1461   -0.3798    3.2722 C   0  0  0  0  0  0  0  0  0  0  0  0
    5.7595    0.0294    1.5024 H   0  0  0  0  0  0  0  0  0  0  0  0
    6.2249    1.5573    0.7377 H   0  0  0  0  0  0  0  0  0  0  0  0
    4.6509    1.4070    1.5302 H   0  0  0  0  0  0  0  0  0  0  0  0
    5.5332   -0.1169   -0.9803 H   0  0  0  0  0  0  0  0  0  0  0  0
    4.4138    1.2711   -0.9541 H   0  0  0  0  0  0  0  0  0  0  0  0
    0.6519   -1.4137    1.9418 H   0  0  0  0  0  0  0  0  0  0  0  0
    0.5350   -2.9606    1.0556 H   0  0  0  0  0  0  0  0  0  0  0  0
    2.1837   -3.1515    2.9189 H   0  0  0  0  0  0  0  0  0  0  0  0
    3.0268   -3.2505    1.3603 H   0  0  0  0  0  0  0  0  0  0  0  0
    3.0639   -1.7463    2.2932 H   0  0  0  0  0  0  0  0  0  0  0  0
   -0.2719    1.6064   -2.5331 H   0  0  0  0  0  0  0  0  0  0  0  0
   -0.0728    1.4611   -0.7465 H   0  0  0  0  0  0  0  0  0  0  0  0
   -4.8466    1.1550   -0.5800 H   0  0  0  0  0  0  0  0  0  0  0  0
   -4.2248    2.8260   -0.7467 H   0  0  0  0  0  0  0  0  0  0  0  0
   -4.8720    1.8710   -2.9658 H   0  0  0  0  0  0  0  0  0  0  0  0
   -3.1253    2.1574   -2.9047 H   0  0  0  0  0  0  0  0  0  0  0  0
   -3.7639    0.5161   -2.7090 H   0  0  0  0  0  0  0  0  0  0  0  0
   -0.6834    1.1086    2.6756 H   0  0  0  0  0  0  0  0  0  0  0  0
   -2.3543    1.4713    2.1699 H   0  0  0  0  0  0  0  0  0  0  0  0
   -3.0651   -0.8166    2.8869 H   0  0  0  0  0  0  0  0  0  0  0  0
   -1.4132   -1.1717    3.4034 H   0  0  0  0  0  0  0  0  0  0  0  0
   -2.3472    0.0828    4.2333 H   0  0  0  0  0  0  0  0  0  0  0  0
  1  2  1  0  0  0  0
  2  3  1  0  0  0  0
  3  4  2  0  0  0  0
  4  5  2  0  0  0  0
  4  6  2  0  0  0  0
  6  7  1  0  0  0  0
  7  8  1  0  0  0  0
  4  9  1  0  0  0  0
  9 10  1  0  0  0  0
 10 11  1  0  0  0  0
 11 12  1  0  0  0  0
 12 13  2  0  0  0  0
 12 14  2  0  0  0  0
 14 15  1  0  0  0  0
 15 16  1  0  0  0  0
 12 17  1  0  0  0  0
 17 18  1  0  0  0  0
 18 19  1  0  0  0  0
  1 20  1  0  0  0  0
  1 21  1  0  0  0  0
  1 22  1  0  0  0  0
  2 23  1  0  0  0  0
  2 24  1  0  0  0  0
  7 25  1  0  0  0  0
  7 26  1  0  0  0  0
  8 27  1  0  0  0  0
  8 28  1  0  0  0  0
  8 29  1  0  0  0  0
 10 30  1  0  0  0  0
 10 31  1  0  0  0  0
 15 32  1  0  0  0  0
 15 33  1  0  0  0  0
 16 34  1  0  0  0  0
 16 35  1  0  0  0  0
 16 36  1  0  0  0  0
 18 37  1  0  0  0  0
 18 38  1  0  0  0  0
 19 39  1  0  0  0  0
 19 40  1  0  0  0  0
 19 41  1  0  0  0  0
M  END
