 xtb: 6.7.1 (edcfbbe)
          04092507313D

 38 37  0     0  0            999 V2000
    4.2748   -2.0782    1.0106 C   0  0  0  0  0  0  0  0  0  0  0  0
    2.7804   -1.9258    0.8076 C   0  0  0  0  0  0  0  0  0  0  0  0
    2.5669   -1.0344   -0.3041 O   0  0  0  0  0  0  0  0  0  0  0  0
    1.4126   -1.0545   -0.9181 C   0  0  0  0  0  0  0  0  0  0  0  0
    0.4864   -1.7930   -0.6262 O   0  0  0  0  0  0  0  0  0  0  0  0
    1.3332   -0.0499   -2.0449 C   0  0  0  0  0  0  0  0  0  0  0  0
    0.1732    0.9147   -1.8075 C   0  0  0  0  0  0  0  0  0  0  0  0
    0.0598    1.5758   -2.6728 H   0  0  0  0  0  0  0  0  0  0  0  0
    0.3254    1.7925   -0.5737 C   0  0  0  0  0  0  0  0  0  0  0  0
   -0.6221    2.3365   -0.0444 O   0  0  0  0  0  0  0  0  0  0  0  0
    1.5704    1.9122   -0.1994 O   0  0  0  0  0  0  0  0  0  0  0  0
    1.8509    2.6969    0.9782 C   0  0  0  0  0  0  0  0  0  0  0  0
    3.3553    2.7527    1.1461 C   0  0  0  0  0  0  0  0  0  0  0  0
   -1.4546    0.0884   -1.7103 S   0  0  0  0  0  0  0  0  0  0  0  0
   -1.6394   -0.5015    0.3311 P   0  0  0  0  0  0  0  0  0  0  0  0
   -0.3528   -0.1482    1.7654 S   0  0  0  0  0  0  0  0  0  0  0  0
   -3.0925    0.1082    0.6727 O   0  0  0  0  0  0  0  0  0  0  0  0
   -3.3515    1.4890    0.9181 C   0  0  0  0  0  0  0  0  0  0  0  0
   -2.0417   -2.0281    0.3200 O   0  0  0  0  0  0  0  0  0  0  0  0
   -2.9481   -2.6023   -0.6381 C   0  0  0  0  0  0  0  0  0  0  0  0
    4.7239   -1.1099    1.2081 H   0  0  0  0  0  0  0  0  0  0  0  0
    4.4534   -2.7337    1.8563 H   0  0  0  0  0  0  0  0  0  0  0  0
    4.7320   -2.5047    0.1226 H   0  0  0  0  0  0  0  0  0  0  0  0
    2.2900   -1.4890    1.6837 H   0  0  0  0  0  0  0  0  0  0  0  0
    2.2942   -2.8807    0.5845 H   0  0  0  0  0  0  0  0  0  0  0  0
    1.1491   -0.5902   -2.9746 H   0  0  0  0  0  0  0  0  0  0  0  0
    2.2705    0.5014   -2.1006 H   0  0  0  0  0  0  0  0  0  0  0  0
    1.4099    3.6891    0.8440 H   0  0  0  0  0  0  0  0  0  0  0  0
    1.3604    2.2085    1.8269 H   0  0  0  0  0  0  0  0  0  0  0  0
    3.5926    3.3129    2.0439 H   0  0  0  0  0  0  0  0  0  0  0  0
    3.7505    1.7455    1.2372 H   0  0  0  0  0  0  0  0  0  0  0  0
    3.8115    3.2363    0.2878 H   0  0  0  0  0  0  0  0  0  0  0  0
   -2.6421    1.8839    1.6464 H   0  0  0  0  0  0  0  0  0  0  0  0
   -4.3655    1.5292    1.3079 H   0  0  0  0  0  0  0  0  0  0  0  0
   -3.2657    2.0579   -0.0074 H   0  0  0  0  0  0  0  0  0  0  0  0
   -3.8849   -2.0472   -0.6507 H   0  0  0  0  0  0  0  0  0  0  0  0
   -3.1061   -3.6222   -0.2973 H   0  0  0  0  0  0  0  0  0  0  0  0
   -2.4888   -2.5944   -1.6263 H   0  0  0  0  0  0  0  0  0  0  0  0
  1  2  1  0  0  0  0
  2  3  1  0  0  0  0
  3  4  4  0  0  0  0
  4  5  2  0  0  0  0
  4  6  1  0  0  0  0
  6  7  1  0  0  0  0
  7  8  1  0  0  0  0
  7  9  1  0  0  0  0
  9 10  2  0  0  0  0
  9 11  4  0  0  0  0
 11 12  1  0  0  0  0
 12 13  1  0  0  0  0
  7 14  1  0  0  0  0
 14 15  1  0  0  0  0
 15 16  2  0  0  0  0
 15 17  1  0  0  0  0
 17 18  1  0  0  0  0
 15 19  2  0  0  0  0
 19 20  1  0  0  0  0
  1 21  1  0  0  0  0
  1 22  1  0  0  0  0
  1 23  1  0  0  0  0
  2 24  1  0  0  0  0
  2 25  1  0  0  0  0
  6 26  1  0  0  0  0
  6 27  1  0  0  0  0
 12 28  1  0  0  0  0
 12 29  1  0  0  0  0
 13 30  1  0  0  0  0
 13 31  1  0  0  0  0
 13 32  1  0  0  0  0
 18 33  1  0  0  0  0
 18 34  1  0  0  0  0
 18 35  1  0  0  0  0
 20 36  1  0  0  0  0
 20 37  1  0  0  0  0
 20 38  1  0  0  0  0
M  END
