 xtb: 6.7.1 (edcfbbe)
          04092505203D

 41 40  0     0  0            999 V2000
    4.7529    1.2852   -1.1710 C   0  0  0  0  0  0  0  0  0  0  0  0
    4.7247    0.9686    0.3100 C   0  0  0  0  0  0  0  0  0  0  0  0
    3.8080   -0.0948    0.6272 O   0  0  0  0  0  0  0  0  0  0  0  0
    2.2360    0.0457    0.4460 P   0  0  0  0  0  0  0  0  0  0  0  0
    1.4617    1.7627    0.9690 S   0  0  0  0  0  0  0  0  0  0  0  0
    1.6708   -1.1379    1.3223 O   0  0  0  0  0  0  0  0  0  0  0  0
    2.0613   -2.5233    1.1650 C   0  0  0  0  0  0  0  0  0  0  0  0
    3.1636   -2.8853    2.1386 C   0  0  0  0  0  0  0  0  0  0  0  0
    1.8991   -0.5494   -1.5783 S   0  0  0  0  0  0  0  0  0  0  0  0
    0.1702   -0.0682   -1.6400 C   0  0  0  0  0  0  0  0  0  0  0  0
   -0.8920   -1.3198   -0.8128 S   0  0  0  0  0  0  0  0  0  0  0  0
   -2.5345   -0.0687   -0.4040 P   0  0  0  0  0  0  0  0  0  0  0  0
   -4.1915   -0.9131    0.2078 S   0  0  0  0  0  0  0  0  0  0  0  0
   -2.5988    0.6754   -1.8054 O   0  0  0  0  0  0  0  0  0  0  0  0
   -3.7885    1.3676   -2.2417 C   0  0  0  0  0  0  0  0  0  0  0  0
   -4.0778    2.5895   -1.3958 C   0  0  0  0  0  0  0  0  0  0  0  0
   -1.9685    1.0809    0.5498 O   0  0  0  0  0  0  0  0  0  0  0  0
   -2.1415    1.0422    1.9736 C   0  0  0  0  0  0  0  0  0  0  0  0
   -1.4440   -0.1433    2.6084 C   0  0  0  0  0  0  0  0  0  0  0  0
    5.5554    1.9881   -1.3705 H   0  0  0  0  0  0  0  0  0  0  0  0
    4.9138    0.3789   -1.7494 H   0  0  0  0  0  0  0  0  0  0  0  0
    3.8088    1.7331   -1.4763 H   0  0  0  0  0  0  0  0  0  0  0  0
    4.4392    1.8527    0.8881 H   0  0  0  0  0  0  0  0  0  0  0  0
    5.6877    0.5934    0.6591 H   0  0  0  0  0  0  0  0  0  0  0  0
    1.1471   -3.0866    1.3624 H   0  0  0  0  0  0  0  0  0  0  0  0
    2.3744   -2.6887    0.1305 H   0  0  0  0  0  0  0  0  0  0  0  0
    2.8478   -2.6714    3.1560 H   0  0  0  0  0  0  0  0  0  0  0  0
    3.3815   -3.9447    2.0467 H   0  0  0  0  0  0  0  0  0  0  0  0
    4.0618   -2.3137    1.9211 H   0  0  0  0  0  0  0  0  0  0  0  0
   -0.1110   -0.0080   -2.6875 H   0  0  0  0  0  0  0  0  0  0  0  0
    0.0424    0.8887   -1.1303 H   0  0  0  0  0  0  0  0  0  0  0  0
   -3.5678    1.6331   -3.2763 H   0  0  0  0  0  0  0  0  0  0  0  0
   -4.6275    0.6657   -2.2061 H   0  0  0  0  0  0  0  0  0  0  0  0
   -3.2018    3.2314   -1.3469 H   0  0  0  0  0  0  0  0  0  0  0  0
   -4.9065    3.1395   -1.8304 H   0  0  0  0  0  0  0  0  0  0  0  0
   -4.3474    2.2853   -0.3850 H   0  0  0  0  0  0  0  0  0  0  0  0
   -1.7156    1.9871    2.3150 H   0  0  0  0  0  0  0  0  0  0  0  0
   -3.2144    1.0093    2.1879 H   0  0  0  0  0  0  0  0  0  0  0  0
   -1.5814   -0.1077    3.6842 H   0  0  0  0  0  0  0  0  0  0  0  0
   -1.8701   -1.0714    2.2258 H   0  0  0  0  0  0  0  0  0  0  0  0
   -0.3797   -0.1253    2.3840 H   0  0  0  0  0  0  0  0  0  0  0  0
  1  2  1  0  0  0  0
  2  3  1  0  0  0  0
  3  4  2  0  0  0  0
  4  5  2  0  0  0  0
  4  6  2  0  0  0  0
  6  7  1  0  0  0  0
  7  8  1  0  0  0  0
  4  9  1  0  0  0  0
  9 10  1  0  0  0  0
 10 11  1  0  0  0  0
 11 12  1  0  0  0  0
 12 13  2  0  0  0  0
 12 14  2  0  0  0  0
 14 15  1  0  0  0  0
 15 16  1  0  0  0  0
 12 17  1  0  0  0  0
 17 18  1  0  0  0  0
 18 19  1  0  0  0  0
  1 20  1  0  0  0  0
  1 21  1  0  0  0  0
  1 22  1  0  0  0  0
  2 23  1  0  0  0  0
  2 24  1  0  0  0  0
  7 25  1  0  0  0  0
  7 26  1  0  0  0  0
  8 27  1  0  0  0  0
  8 28  1  0  0  0  0
  8 29  1  0  0  0  0
 10 30  1  0  0  0  0
 10 31  1  0  0  0  0
 15 32  1  0  0  0  0
 15 33  1  0  0  0  0
 16 34  1  0  0  0  0
 16 35  1  0  0  0  0
 16 36  1  0  0  0  0
 18 37  1  0  0  0  0
 18 38  1  0  0  0  0
 19 39  1  0  0  0  0
 19 40  1  0  0  0  0
 19 41  1  0  0  0  0
M  END
