 xtb: 6.7.1 (edcfbbe)
          04092505203D

 41 40  0     0  0            999 V2000
    4.5050   -2.1466   -0.5501 C   0  0  0  0  0  0  0  0  0  0  0  0
    4.5951   -0.8716   -1.3619 C   0  0  0  0  0  0  0  0  0  0  0  0
    3.2968   -0.3220   -1.6936 O   0  0  0  0  0  0  0  0  0  0  0  0
    2.2217    0.2267   -0.6768 P   0  0  0  0  0  0  0  0  0  0  0  0
    1.0135    1.4170   -1.6619 S   0  0  0  0  0  0  0  0  0  0  0  0
    3.1537    0.8080    0.4658 O   0  0  0  0  0  0  0  0  0  0  0  0
    2.7347    1.4387    1.6886 C   0  0  0  0  0  0  0  0  0  0  0  0
    2.3969    2.8992    1.4696 C   0  0  0  0  0  0  0  0  0  0  0  0
    1.2751   -1.4590    0.2205 S   0  0  0  0  0  0  0  0  0  0  0  0
   -0.1462   -1.6218   -0.9074 C   0  0  0  0  0  0  0  0  0  0  0  0
   -1.7209   -1.8238   -0.0472 S   0  0  0  0  0  0  0  0  0  0  0  0
   -2.0846    0.2180    0.4498 P   0  0  0  0  0  0  0  0  0  0  0  0
   -0.7963    1.0533    1.6624 S   0  0  0  0  0  0  0  0  0  0  0  0
   -3.5845    0.2148    0.9721 O   0  0  0  0  0  0  0  0  0  0  0  0
   -3.9180   -0.0313    2.3504 C   0  0  0  0  0  0  0  0  0  0  0  0
   -3.5783   -1.4440    2.7774 C   0  0  0  0  0  0  0  0  0  0  0  0
   -2.1871    0.9927   -0.9196 O   0  0  0  0  0  0  0  0  0  0  0  0
   -3.3478    1.0646   -1.7823 C   0  0  0  0  0  0  0  0  0  0  0  0
   -3.7453   -0.2813   -2.3509 C   0  0  0  0  0  0  0  0  0  0  0  0
    4.0745   -1.9463    0.4291 H   0  0  0  0  0  0  0  0  0  0  0  0
    3.8857   -2.8800   -1.0599 H   0  0  0  0  0  0  0  0  0  0  0  0
    5.5039   -2.5513   -0.4204 H   0  0  0  0  0  0  0  0  0  0  0  0
    5.0423   -1.0503   -2.3411 H   0  0  0  0  0  0  0  0  0  0  0  0
    5.1620   -0.1069   -0.8283 H   0  0  0  0  0  0  0  0  0  0  0  0
    1.8772    0.9035    2.1039 H   0  0  0  0  0  0  0  0  0  0  0  0
    3.5961    1.3254    2.3496 H   0  0  0  0  0  0  0  0  0  0  0  0
    1.5199    2.9894    0.8314 H   0  0  0  0  0  0  0  0  0  0  0  0
    2.1756    3.3603    2.4266 H   0  0  0  0  0  0  0  0  0  0  0  0
    3.2298    3.4145    0.9984 H   0  0  0  0  0  0  0  0  0  0  0  0
   -0.0120   -2.5231   -1.4991 H   0  0  0  0  0  0  0  0  0  0  0  0
   -0.1809   -0.7264   -1.5358 H   0  0  0  0  0  0  0  0  0  0  0  0
   -3.3845    0.6965    2.9697 H   0  0  0  0  0  0  0  0  0  0  0  0
   -4.9915    0.1582    2.3936 H   0  0  0  0  0  0  0  0  0  0  0  0
   -3.9575   -1.6164    3.7795 H   0  0  0  0  0  0  0  0  0  0  0  0
   -4.0195   -2.1649    2.0937 H   0  0  0  0  0  0  0  0  0  0  0  0
   -2.4977   -1.5811    2.7812 H   0  0  0  0  0  0  0  0  0  0  0  0
   -4.1672    1.5051   -1.2113 H   0  0  0  0  0  0  0  0  0  0  0  0
   -3.0251    1.7537   -2.5649 H   0  0  0  0  0  0  0  0  0  0  0  0
   -4.0791   -0.9459   -1.5572 H   0  0  0  0  0  0  0  0  0  0  0  0
   -4.5575   -0.1353   -3.0563 H   0  0  0  0  0  0  0  0  0  0  0  0
   -2.9053   -0.7391   -2.8678 H   0  0  0  0  0  0  0  0  0  0  0  0
  1  2  1  0  0  0  0
  2  3  1  0  0  0  0
  3  4  2  0  0  0  0
  4  5  2  0  0  0  0
  4  6  2  0  0  0  0
  6  7  1  0  0  0  0
  7  8  1  0  0  0  0
  4  9  1  0  0  0  0
  9 10  1  0  0  0  0
 10 11  1  0  0  0  0
 11 12  1  0  0  0  0
 12 13  2  0  0  0  0
 12 14  2  0  0  0  0
 14 15  1  0  0  0  0
 15 16  1  0  0  0  0
 12 17  2  0  0  0  0
 17 18  1  0  0  0  0
 18 19  1  0  0  0  0
  1 20  1  0  0  0  0
  1 21  1  0  0  0  0
  1 22  1  0  0  0  0
  2 23  1  0  0  0  0
  2 24  1  0  0  0  0
  7 25  1  0  0  0  0
  7 26  1  0  0  0  0
  8 27  1  0  0  0  0
  8 28  1  0  0  0  0
  8 29  1  0  0  0  0
 10 30  1  0  0  0  0
 10 31  1  0  0  0  0
 15 32  1  0  0  0  0
 15 33  1  0  0  0  0
 16 34  1  0  0  0  0
 16 35  1  0  0  0  0
 16 36  1  0  0  0  0
 18 37  1  0  0  0  0
 18 38  1  0  0  0  0
 19 39  1  0  0  0  0
 19 40  1  0  0  0  0
 19 41  1  0  0  0  0
M  END
