 xtb: 6.7.1 (edcfbbe)
          04092505203D

 41 40  0     0  0            999 V2000
    2.7937    2.6470   -0.4006 C   0  0  0  0  0  0  0  0  0  0  0  0
    2.3585    1.5144   -1.3087 C   0  0  0  0  0  0  0  0  0  0  0  0
    1.4891    0.5851   -0.6285 O   0  0  0  0  0  0  0  0  0  0  0  0
    1.9634   -0.5323    0.3872 P   0  0  0  0  0  0  0  0  0  0  0  0
    2.6544    0.0291    2.1394 S   0  0  0  0  0  0  0  0  0  0  0  0
    3.0036   -1.3485   -0.4926 O   0  0  0  0  0  0  0  0  0  0  0  0
    3.9281   -2.2847    0.0911 C   0  0  0  0  0  0  0  0  0  0  0  0
    3.2260   -3.5260    0.6015 C   0  0  0  0  0  0  0  0  0  0  0  0
    0.2088   -1.7008    0.4365 S   0  0  0  0  0  0  0  0  0  0  0  0
   -0.6107   -0.7763    1.7625 C   0  0  0  0  0  0  0  0  0  0  0  0
   -0.9756    0.9456    1.3187 S   0  0  0  0  0  0  0  0  0  0  0  0
   -2.0920    0.6284   -0.4580 P   0  0  0  0  0  0  0  0  0  0  0  0
   -1.2562    0.3072   -2.2072 S   0  0  0  0  0  0  0  0  0  0  0  0
   -3.0521    1.9004   -0.4747 O   0  0  0  0  0  0  0  0  0  0  0  0
   -2.6950    3.1120   -1.1587 C   0  0  0  0  0  0  0  0  0  0  0  0
   -1.4808    3.7699   -0.5350 C   0  0  0  0  0  0  0  0  0  0  0  0
   -3.0686   -0.4989    0.0645 O   0  0  0  0  0  0  0  0  0  0  0  0
   -3.6459   -1.5284   -0.7700 C   0  0  0  0  0  0  0  0  0  0  0  0
   -3.3192   -2.8877   -0.1844 C   0  0  0  0  0  0  0  0  0  0  0  0
    3.4207    2.2695    0.4048 H   0  0  0  0  0  0  0  0  0  0  0  0
    3.3565    3.3723   -0.9795 H   0  0  0  0  0  0  0  0  0  0  0  0
    1.9258    3.1330    0.0393 H   0  0  0  0  0  0  0  0  0  0  0  0
    3.2172    0.9661   -1.7028 H   0  0  0  0  0  0  0  0  0  0  0  0
    1.7437    1.8736   -2.1375 H   0  0  0  0  0  0  0  0  0  0  0  0
    4.6174   -2.5144   -0.7223 H   0  0  0  0  0  0  0  0  0  0  0  0
    4.4612   -1.7812    0.9042 H   0  0  0  0  0  0  0  0  0  0  0  0
    2.5907   -3.2715    1.4488 H   0  0  0  0  0  0  0  0  0  0  0  0
    2.6085   -3.9589   -0.1816 H   0  0  0  0  0  0  0  0  0  0  0  0
    3.9665   -4.2519    0.9214 H   0  0  0  0  0  0  0  0  0  0  0  0
    0.0486   -0.7236    2.6298 H   0  0  0  0  0  0  0  0  0  0  0  0
   -1.5335   -1.3016    1.9947 H   0  0  0  0  0  0  0  0  0  0  0  0
   -2.5039    2.8709   -2.2097 H   0  0  0  0  0  0  0  0  0  0  0  0
   -3.5848    3.7370   -1.0749 H   0  0  0  0  0  0  0  0  0  0  0  0
   -1.2770    4.7114   -1.0347 H   0  0  0  0  0  0  0  0  0  0  0  0
   -1.6475    3.9473    0.5249 H   0  0  0  0  0  0  0  0  0  0  0  0
   -0.6165    3.1137   -0.6457 H   0  0  0  0  0  0  0  0  0  0  0  0
   -4.7215   -1.3436   -0.7816 H   0  0  0  0  0  0  0  0  0  0  0  0
   -3.2463   -1.4289   -1.7848 H   0  0  0  0  0  0  0  0  0  0  0  0
   -3.7804   -3.6560   -0.7963 H   0  0  0  0  0  0  0  0  0  0  0  0
   -2.2416   -3.0420   -0.1707 H   0  0  0  0  0  0  0  0  0  0  0  0
   -3.7012   -2.9611    0.8299 H   0  0  0  0  0  0  0  0  0  0  0  0
  1  2  1  0  0  0  0
  2  3  1  0  0  0  0
  3  4  2  0  0  0  0
  4  5  2  0  0  0  0
  4  6  2  0  0  0  0
  6  7  1  0  0  0  0
  7  8  1  0  0  0  0
  4  9  1  0  0  0  0
  9 10  1  0  0  0  0
 10 11  1  0  0  0  0
 11 12  1  0  0  0  0
 12 13  2  0  0  0  0
 12 14  2  0  0  0  0
 14 15  1  0  0  0  0
 15 16  1  0  0  0  0
 12 17  2  0  0  0  0
 17 18  1  0  0  0  0
 18 19  1  0  0  0  0
  1 20  1  0  0  0  0
  1 21  1  0  0  0  0
  1 22  1  0  0  0  0
  2 23  1  0  0  0  0
  2 24  1  0  0  0  0
  7 25  1  0  0  0  0
  7 26  1  0  0  0  0
  8 27  1  0  0  0  0
  8 28  1  0  0  0  0
  8 29  1  0  0  0  0
 10 30  1  0  0  0  0
 10 31  1  0  0  0  0
 15 32  1  0  0  0  0
 15 33  1  0  0  0  0
 16 34  1  0  0  0  0
 16 35  1  0  0  0  0
 16 36  1  0  0  0  0
 18 37  1  0  0  0  0
 18 38  1  0  0  0  0
 19 39  1  0  0  0  0
 19 40  1  0  0  0  0
 19 41  1  0  0  0  0
M  END
