 xtb: 6.7.1 (edcfbbe)
          04092507313D

 38 37  0     0  0            999 V2000
    2.3091   -3.5094   -0.2624 C   0  0  0  0  0  0  0  0  0  0  0  0
    2.9481   -2.1767    0.0927 C   0  0  0  0  0  0  0  0  0  0  0  0
    2.1706   -1.0817   -0.4278 O   0  0  0  0  0  0  0  0  0  0  0  0
    2.3445   -0.7352   -1.6951 C   0  0  0  0  0  0  0  0  0  0  0  0
    3.1739   -1.2271   -2.4249 O   0  0  0  0  0  0  0  0  0  0  0  0
    1.4017    0.3682   -2.1276 C   0  0  0  0  0  0  0  0  0  0  0  0
    0.2974    0.6505   -1.1198 C   0  0  0  0  0  0  0  0  0  0  0  0
   -0.3073    1.5026   -1.4495 H   0  0  0  0  0  0  0  0  0  0  0  0
    0.8311    0.9744    0.2614 C   0  0  0  0  0  0  0  0  0  0  0  0
    0.3275    0.5361    1.2768 O   0  0  0  0  0  0  0  0  0  0  0  0
    1.8398    1.8007    0.2269 O   0  0  0  0  0  0  0  0  0  0  0  0
    2.3935    2.2347    1.4878 C   0  0  0  0  0  0  0  0  0  0  0  0
    3.3855    3.3446    1.2049 C   0  0  0  0  0  0  0  0  0  0  0  0
   -0.8298   -0.7766   -0.9464 S   0  0  0  0  0  0  0  0  0  0  0  0
   -2.1476    0.0475    0.4985 P   0  0  0  0  0  0  0  0  0  0  0  0
   -2.3270    1.9967    0.5373 S   0  0  0  0  0  0  0  0  0  0  0  0
   -3.5176   -0.6769    0.0574 O   0  0  0  0  0  0  0  0  0  0  0  0
   -4.1837   -0.3381   -1.1610 C   0  0  0  0  0  0  0  0  0  0  0  0
   -1.9904   -0.6321    1.9162 O   0  0  0  0  0  0  0  0  0  0  0  0
   -1.5910   -2.0044    2.0793 C   0  0  0  0  0  0  0  0  0  0  0  0
    1.2733   -3.5283    0.0672 H   0  0  0  0  0  0  0  0  0  0  0  0
    2.3372   -3.6604   -1.3387 H   0  0  0  0  0  0  0  0  0  0  0  0
    2.8562   -4.3106    0.2231 H   0  0  0  0  0  0  0  0  0  0  0  0
    3.9603   -2.1090   -0.3161 H   0  0  0  0  0  0  0  0  0  0  0  0
    2.9606   -2.0144    1.1712 H   0  0  0  0  0  0  0  0  0  0  0  0
    0.9753    0.0842   -3.0908 H   0  0  0  0  0  0  0  0  0  0  0  0
    1.9945    1.2740   -2.2752 H   0  0  0  0  0  0  0  0  0  0  0  0
    1.5696    2.5706    2.1253 H   0  0  0  0  0  0  0  0  0  0  0  0
    2.8704    1.3721    1.9626 H   0  0  0  0  0  0  0  0  0  0  0  0
    4.1787    2.9813    0.5586 H   0  0  0  0  0  0  0  0  0  0  0  0
    2.8855    4.1760    0.7171 H   0  0  0  0  0  0  0  0  0  0  0  0
    3.8143    3.6859    2.1411 H   0  0  0  0  0  0  0  0  0  0  0  0
   -4.2782    0.7460   -1.2460 H   0  0  0  0  0  0  0  0  0  0  0  0
   -5.1654   -0.8002   -1.0974 H   0  0  0  0  0  0  0  0  0  0  0  0
   -3.6264   -0.7318   -2.0111 H   0  0  0  0  0  0  0  0  0  0  0  0
   -1.7870   -2.2353    3.1232 H   0  0  0  0  0  0  0  0  0  0  0  0
   -0.5264   -2.0930    1.8619 H   0  0  0  0  0  0  0  0  0  0  0  0
   -2.1716   -2.6508    1.4227 H   0  0  0  0  0  0  0  0  0  0  0  0
  1  2  1  0  0  0  0
  2  3  1  0  0  0  0
  3  4  1  0  0  0  0
  4  5  2  0  0  0  0
  4  6  1  0  0  0  0
  6  7  1  0  0  0  0
  7  8  1  0  0  0  0
  7  9  1  0  0  0  0
  9 10  2  0  0  0  0
  9 11  4  0  0  0  0
 11 12  1  0  0  0  0
 12 13  1  0  0  0  0
  7 14  1  0  0  0  0
 14 15  1  0  0  0  0
 15 16  2  0  0  0  0
 15 17  1  0  0  0  0
 17 18  1  0  0  0  0
 15 19  2  0  0  0  0
 19 20  1  0  0  0  0
  1 21  1  0  0  0  0
  1 22  1  0  0  0  0
  1 23  1  0  0  0  0
  2 24  1  0  0  0  0
  2 25  1  0  0  0  0
  6 26  1  0  0  0  0
  6 27  1  0  0  0  0
 12 28  1  0  0  0  0
 12 29  1  0  0  0  0
 13 30  1  0  0  0  0
 13 31  1  0  0  0  0
 13 32  1  0  0  0  0
 18 33  1  0  0  0  0
 18 34  1  0  0  0  0
 18 35  1  0  0  0  0
 20 36  1  0  0  0  0
 20 37  1  0  0  0  0
 20 38  1  0  0  0  0
M  END
