 xtb: 6.7.1 (edcfbbe)
          04092505213D

 41 40  0     0  0            999 V2000
    4.3074    1.6526   -0.6790 C   0  0  0  0  0  0  0  0  0  0  0  0
    4.1620    1.3313    0.7937 C   0  0  0  0  0  0  0  0  0  0  0  0
    2.8160    0.9335    1.1590 O   0  0  0  0  0  0  0  0  0  0  0  0
    2.0649   -0.3670    0.6713 P   0  0  0  0  0  0  0  0  0  0  0  0
    0.8572   -1.0491    2.0545 S   0  0  0  0  0  0  0  0  0  0  0  0
    3.2505   -1.3557    0.2927 O   0  0  0  0  0  0  0  0  0  0  0  0
    3.0554   -2.7746    0.1780 C   0  0  0  0  0  0  0  0  0  0  0  0
    2.2310   -3.1382   -1.0399 C   0  0  0  0  0  0  0  0  0  0  0  0
    1.2459    0.1560   -1.2321 S   0  0  0  0  0  0  0  0  0  0  0  0
    0.3625    1.6691   -0.7616 C   0  0  0  0  0  0  0  0  0  0  0  0
   -0.9343    1.4640    0.4964 S   0  0  0  0  0  0  0  0  0  0  0  0
   -2.1871    0.0470   -0.4962 P   0  0  0  0  0  0  0  0  0  0  0  0
   -1.5509   -1.7812   -0.7769 S   0  0  0  0  0  0  0  0  0  0  0  0
   -2.5785    0.7242   -1.8674 O   0  0  0  0  0  0  0  0  0  0  0  0
   -3.4895    1.8442   -2.0272 C   0  0  0  0  0  0  0  0  0  0  0  0
   -2.7479    3.1636   -2.1126 C   0  0  0  0  0  0  0  0  0  0  0  0
   -3.5316    0.1527    0.3481 O   0  0  0  0  0  0  0  0  0  0  0  0
   -3.7926   -0.6745    1.4938 C   0  0  0  0  0  0  0  0  0  0  0  0
   -2.9683   -0.2576    2.6945 C   0  0  0  0  0  0  0  0  0  0  0  0
    3.6068    2.4280   -0.9774 H   0  0  0  0  0  0  0  0  0  0  0  0
    5.3193    2.0018   -0.8606 H   0  0  0  0  0  0  0  0  0  0  0  0
    4.1275    0.7644   -1.2801 H   0  0  0  0  0  0  0  0  0  0  0  0
    4.3346    2.2099    1.4175 H   0  0  0  0  0  0  0  0  0  0  0  0
    4.8430    0.5296    1.0841 H   0  0  0  0  0  0  0  0  0  0  0  0
    4.0691   -3.1724    0.1117 H   0  0  0  0  0  0  0  0  0  0  0  0
    2.5704   -3.1349    1.0911 H   0  0  0  0  0  0  0  0  0  0  0  0
    2.2125   -4.2173   -1.1535 H   0  0  0  0  0  0  0  0  0  0  0  0
    1.2051   -2.7875   -0.9224 H   0  0  0  0  0  0  0  0  0  0  0  0
    2.6535   -2.6881   -1.9348 H   0  0  0  0  0  0  0  0  0  0  0  0
   -0.0739    2.0448   -1.6847 H   0  0  0  0  0  0  0  0  0  0  0  0
    1.0592    2.3868   -0.3331 H   0  0  0  0  0  0  0  0  0  0  0  0
   -4.0077    1.6219   -2.9615 H   0  0  0  0  0  0  0  0  0  0  0  0
   -4.2012    1.8403   -1.2009 H   0  0  0  0  0  0  0  0  0  0  0  0
   -2.0079    3.1285   -2.9079 H   0  0  0  0  0  0  0  0  0  0  0  0
   -3.4639    3.9490   -2.3345 H   0  0  0  0  0  0  0  0  0  0  0  0
   -2.2572    3.3929   -1.1699 H   0  0  0  0  0  0  0  0  0  0  0  0
   -4.8605   -0.5406    1.6734 H   0  0  0  0  0  0  0  0  0  0  0  0
   -3.5863   -1.7160    1.2266 H   0  0  0  0  0  0  0  0  0  0  0  0
   -3.0810    0.8075    2.8810 H   0  0  0  0  0  0  0  0  0  0  0  0
   -3.2970   -0.8136    3.5666 H   0  0  0  0  0  0  0  0  0  0  0  0
   -1.9134   -0.4750    2.5261 H   0  0  0  0  0  0  0  0  0  0  0  0
  1  2  1  0  0  0  0
  2  3  1  0  0  0  0
  3  4  2  0  0  0  0
  4  5  2  0  0  0  0
  4  6  2  0  0  0  0
  6  7  1  0  0  0  0
  7  8  1  0  0  0  0
  4  9  1  0  0  0  0
  9 10  1  0  0  0  0
 10 11  1  0  0  0  0
 11 12  1  0  0  0  0
 12 13  2  0  0  0  0
 12 14  2  0  0  0  0
 14 15  1  0  0  0  0
 15 16  1  0  0  0  0
 12 17  2  0  0  0  0
 17 18  1  0  0  0  0
 18 19  1  0  0  0  0
  1 20  1  0  0  0  0
  1 21  1  0  0  0  0
  1 22  1  0  0  0  0
  2 23  1  0  0  0  0
  2 24  1  0  0  0  0
  7 25  1  0  0  0  0
  7 26  1  0  0  0  0
  8 27  1  0  0  0  0
  8 28  1  0  0  0  0
  8 29  1  0  0  0  0
 10 30  1  0  0  0  0
 10 31  1  0  0  0  0
 15 32  1  0  0  0  0
 15 33  1  0  0  0  0
 16 34  1  0  0  0  0
 16 35  1  0  0  0  0
 16 36  1  0  0  0  0
 18 37  1  0  0  0  0
 18 38  1  0  0  0  0
 19 39  1  0  0  0  0
 19 40  1  0  0  0  0
 19 41  1  0  0  0  0
M  END
