 xtb: 6.7.1 (edcfbbe)
          04092505213D

 41 40  0     0  0            999 V2000
    0.4603   -1.4208    2.2741 C   0  0  0  0  0  0  0  0  0  0  0  0
    1.9644   -1.3682    2.4460 C   0  0  0  0  0  0  0  0  0  0  0  0
    2.5564   -0.2702    1.7316 O   0  0  0  0  0  0  0  0  0  0  0  0
    2.5602   -0.1718    0.1440 P   0  0  0  0  0  0  0  0  0  0  0  0
    2.7968   -1.8753   -0.8046 S   0  0  0  0  0  0  0  0  0  0  0  0
    3.6783    0.9208   -0.1090 O   0  0  0  0  0  0  0  0  0  0  0  0
    5.0714    0.5779   -0.2611 C   0  0  0  0  0  0  0  0  0  0  0  0
    5.6751    0.0522    1.0246 C   0  0  0  0  0  0  0  0  0  0  0  0
    0.8904    1.0343   -0.3581 S   0  0  0  0  0  0  0  0  0  0  0  0
    0.1912    0.0311   -1.7007 C   0  0  0  0  0  0  0  0  0  0  0  0
   -1.0975   -1.1155   -1.1498 S   0  0  0  0  0  0  0  0  0  0  0  0
   -2.5209    0.3740   -0.6673 P   0  0  0  0  0  0  0  0  0  0  0  0
   -2.6586    1.8948   -1.8877 S   0  0  0  0  0  0  0  0  0  0  0  0
   -2.0790    0.7508    0.8230 O   0  0  0  0  0  0  0  0  0  0  0  0
   -2.1807    2.0850    1.3435 C   0  0  0  0  0  0  0  0  0  0  0  0
   -3.6075    2.3991    1.7460 C   0  0  0  0  0  0  0  0  0  0  0  0
   -3.8894   -0.4148   -0.5770 O   0  0  0  0  0  0  0  0  0  0  0  0
   -4.0545   -1.7666   -0.0858 C   0  0  0  0  0  0  0  0  0  0  0  0
   -3.7238   -1.8908    1.3865 C   0  0  0  0  0  0  0  0  0  0  0  0
    0.0156   -0.4573    2.5126 H   0  0  0  0  0  0  0  0  0  0  0  0
    0.2142   -1.6775    1.2438 H   0  0  0  0  0  0  0  0  0  0  0  0
    0.0488   -2.1810    2.9307 H   0  0  0  0  0  0  0  0  0  0  0  0
    2.4201   -2.2983    2.0915 H   0  0  0  0  0  0  0  0  0  0  0  0
    2.2466   -1.1863    3.4840 H   0  0  0  0  0  0  0  0  0  0  0  0
    5.1584   -0.1648   -1.0607 H   0  0  0  0  0  0  0  0  0  0  0  0
    5.5358    1.5143   -0.5730 H   0  0  0  0  0  0  0  0  0  0  0  0
    5.2344   -0.9113    1.2765 H   0  0  0  0  0  0  0  0  0  0  0  0
    6.7454   -0.0736    0.8931 H   0  0  0  0  0  0  0  0  0  0  0  0
    5.4889    0.7483    1.8382 H   0  0  0  0  0  0  0  0  0  0  0  0
    0.9745   -0.5807   -2.1481 H   0  0  0  0  0  0  0  0  0  0  0  0
   -0.2401    0.7239   -2.4228 H   0  0  0  0  0  0  0  0  0  0  0  0
   -1.5023    2.0993    2.1976 H   0  0  0  0  0  0  0  0  0  0  0  0
   -1.8267    2.7896    0.5842 H   0  0  0  0  0  0  0  0  0  0  0  0
   -3.9552    1.6896    2.4920 H   0  0  0  0  0  0  0  0  0  0  0  0
   -3.6570    3.4041    2.1527 H   0  0  0  0  0  0  0  0  0  0  0  0
   -4.2536    2.3373    0.8705 H   0  0  0  0  0  0  0  0  0  0  0  0
   -5.1063   -1.9784   -0.2845 H   0  0  0  0  0  0  0  0  0  0  0  0
   -3.4234   -2.4286   -0.6847 H   0  0  0  0  0  0  0  0  0  0  0  0
   -3.9222   -2.9082    1.7084 H   0  0  0  0  0  0  0  0  0  0  0  0
   -2.6739   -1.6626    1.5550 H   0  0  0  0  0  0  0  0  0  0  0  0
   -4.3339   -1.2053    1.9686 H   0  0  0  0  0  0  0  0  0  0  0  0
  1  2  1  0  0  0  0
  2  3  1  0  0  0  0
  3  4  2  0  0  0  0
  4  5  2  0  0  0  0
  4  6  2  0  0  0  0
  6  7  1  0  0  0  0
  7  8  1  0  0  0  0
  4  9  1  0  0  0  0
  9 10  1  0  0  0  0
 10 11  1  0  0  0  0
 11 12  1  0  0  0  0
 12 13  2  0  0  0  0
 12 14  1  0  0  0  0
 14 15  1  0  0  0  0
 15 16  1  0  0  0  0
 12 17  2  0  0  0  0
 17 18  1  0  0  0  0
 18 19  1  0  0  0  0
  1 20  1  0  0  0  0
  1 21  1  0  0  0  0
  1 22  1  0  0  0  0
  2 23  1  0  0  0  0
  2 24  1  0  0  0  0
  7 25  1  0  0  0  0
  7 26  1  0  0  0  0
  8 27  1  0  0  0  0
  8 28  1  0  0  0  0
  8 29  1  0  0  0  0
 10 30  1  0  0  0  0
 10 31  1  0  0  0  0
 15 32  1  0  0  0  0
 15 33  1  0  0  0  0
 16 34  1  0  0  0  0
 16 35  1  0  0  0  0
 16 36  1  0  0  0  0
 18 37  1  0  0  0  0
 18 38  1  0  0  0  0
 19 39  1  0  0  0  0
 19 40  1  0  0  0  0
 19 41  1  0  0  0  0
M  END
