 xtb: 6.7.1 (edcfbbe)
          04092505203D

 41 40  0     0  0            999 V2000
    3.0448   -2.2568   -2.2226 C   0  0  0  0  0  0  0  0  0  0  0  0
    4.2328   -1.5506   -1.6051 C   0  0  0  0  0  0  0  0  0  0  0  0
    3.8902   -0.2494   -1.0698 O   0  0  0  0  0  0  0  0  0  0  0  0
    2.8365    0.0304    0.0710 P   0  0  0  0  0  0  0  0  0  0  0  0
    3.2008    1.7247    0.9800 S   0  0  0  0  0  0  0  0  0  0  0  0
    2.9655   -1.2848    0.9607 O   0  0  0  0  0  0  0  0  0  0  0  0
    2.5862   -1.3414    2.3457 C   0  0  0  0  0  0  0  0  0  0  0  0
    1.1024   -1.1181    2.5502 C   0  0  0  0  0  0  0  0  0  0  0  0
    0.9348   -0.0930   -0.9117 S   0  0  0  0  0  0  0  0  0  0  0  0
    0.2277    1.5130   -0.4820 C   0  0  0  0  0  0  0  0  0  0  0  0
   -0.9621    1.4501    0.8901 S   0  0  0  0  0  0  0  0  0  0  0  0
   -2.3758    0.2283   -0.0909 P   0  0  0  0  0  0  0  0  0  0  0  0
   -2.6543    0.5443   -2.0104 S   0  0  0  0  0  0  0  0  0  0  0  0
   -3.6833    0.3296    0.8063 O   0  0  0  0  0  0  0  0  0  0  0  0
   -4.7034    1.3166    0.5801 C   0  0  0  0  0  0  0  0  0  0  0  0
   -4.2248    2.7173    0.9044 C   0  0  0  0  0  0  0  0  0  0  0  0
   -1.8209   -1.1984    0.3143 O   0  0  0  0  0  0  0  0  0  0  0  0
   -2.1239   -2.3838   -0.4488 C   0  0  0  0  0  0  0  0  0  0  0  0
   -3.5868   -2.7605   -0.3443 C   0  0  0  0  0  0  0  0  0  0  0  0
    3.3760   -3.1936   -2.6599 H   0  0  0  0  0  0  0  0  0  0  0  0
    2.2952   -2.4655   -1.4610 H   0  0  0  0  0  0  0  0  0  0  0  0
    2.5927   -1.6401   -2.9952 H   0  0  0  0  0  0  0  0  0  0  0  0
    4.9961   -1.3194   -2.3495 H   0  0  0  0  0  0  0  0  0  0  0  0
    4.6656   -2.1468   -0.7994 H   0  0  0  0  0  0  0  0  0  0  0  0
    2.8895   -2.3431    2.6547 H   0  0  0  0  0  0  0  0  0  0  0  0
    3.1630   -0.5904    2.8937 H   0  0  0  0  0  0  0  0  0  0  0  0
    0.5202   -1.7742    1.9072 H   0  0  0  0  0  0  0  0  0  0  0  0
    0.8472   -1.3149    3.5865 H   0  0  0  0  0  0  0  0  0  0  0  0
    0.8460   -0.0841    2.3221 H   0  0  0  0  0  0  0  0  0  0  0  0
   -0.2821    1.8819   -1.3708 H   0  0  0  0  0  0  0  0  0  0  0  0
    1.0274    2.1869   -0.1687 H   0  0  0  0  0  0  0  0  0  0  0  0
   -5.0214    1.2525   -0.4657 H   0  0  0  0  0  0  0  0  0  0  0  0
   -5.5179    1.0074    1.2366 H   0  0  0  0  0  0  0  0  0  0  0  0
   -3.8047    2.7507    1.9066 H   0  0  0  0  0  0  0  0  0  0  0  0
   -3.4579    3.0239    0.1940 H   0  0  0  0  0  0  0  0  0  0  0  0
   -5.0599    3.4075    0.8391 H   0  0  0  0  0  0  0  0  0  0  0  0
   -1.8400   -2.2056   -1.4910 H   0  0  0  0  0  0  0  0  0  0  0  0
   -1.4777   -3.1484   -0.0160 H   0  0  0  0  0  0  0  0  0  0  0  0
   -4.1996   -1.9960   -0.8204 H   0  0  0  0  0  0  0  0  0  0  0  0
   -3.7527   -3.7084   -0.8467 H   0  0  0  0  0  0  0  0  0  0  0  0
   -3.8790   -2.8450    0.6991 H   0  0  0  0  0  0  0  0  0  0  0  0
  1  2  1  0  0  0  0
  2  3  1  0  0  0  0
  3  4  2  0  0  0  0
  4  5  2  0  0  0  0
  4  6  2  0  0  0  0
  6  7  1  0  0  0  0
  7  8  1  0  0  0  0
  4  9  1  0  0  0  0
  9 10  1  0  0  0  0
 10 11  1  0  0  0  0
 11 12  1  0  0  0  0
 12 13  2  0  0  0  0
 12 14  2  0  0  0  0
 14 15  1  0  0  0  0
 15 16  1  0  0  0  0
 12 17  2  0  0  0  0
 17 18  1  0  0  0  0
 18 19  1  0  0  0  0
  1 20  1  0  0  0  0
  1 21  1  0  0  0  0
  1 22  1  0  0  0  0
  2 23  1  0  0  0  0
  2 24  1  0  0  0  0
  7 25  1  0  0  0  0
  7 26  1  0  0  0  0
  8 27  1  0  0  0  0
  8 28  1  0  0  0  0
  8 29  1  0  0  0  0
 10 30  1  0  0  0  0
 10 31  1  0  0  0  0
 15 32  1  0  0  0  0
 15 33  1  0  0  0  0
 16 34  1  0  0  0  0
 16 35  1  0  0  0  0
 16 36  1  0  0  0  0
 18 37  1  0  0  0  0
 18 38  1  0  0  0  0
 19 39  1  0  0  0  0
 19 40  1  0  0  0  0
 19 41  1  0  0  0  0
M  END
