 xtb: 6.7.1 (edcfbbe)
          04032519583D

 10  9  0     0  0            999 V2000
    1.8280   -0.1174    0.0000 C   0  0  0  0  0  0  0  0  0  0  0  0
    0.6036    0.3992    0.0000 C   0  0  0  0  0  0  0  0  0  0  0  0
   -0.6037   -0.3992   -0.0001 C   0  0  0  0  0  0  0  0  0  0  0  0
   -1.8280    0.1174    0.0001 C   0  0  0  0  0  0  0  0  0  0  0  0
    2.7086    0.5010    0.0001 H   0  0  0  0  0  0  0  0  0  0  0  0
    1.9889   -1.1830    0.0001 H   0  0  0  0  0  0  0  0  0  0  0  0
    0.4638    1.4724    0.0000 H   0  0  0  0  0  0  0  0  0  0  0  0
   -0.4638   -1.4724    0.0002 H   0  0  0  0  0  0  0  0  0  0  0  0
   -2.7086   -0.5010    0.0004 H   0  0  0  0  0  0  0  0  0  0  0  0
   -1.9889    1.1830   -0.0002 H   0  0  0  0  0  0  0  0  0  0  0  0
  1  2  2  0  0  0  0
  2  3  1  0  0  0  0
  3  4  2  0  0  0  0
  1  5  1  0  0  0  0
  1  6  1  0  0  0  0
  2  7  1  0  0  0  0
  3  8  1  0  0  0  0
  4  9  1  0  0  0  0
  4 10  1  0  0  0  0
M  END
