 xtb: 6.7.1 (edcfbbe)
          04092507313D

 38 37  0     0  0            999 V2000
    5.7271   -2.8653   -1.0822 C   0  0  0  0  0  0  0  0  0  0  0  0
    4.7999   -1.6944   -1.3441 C   0  0  0  0  0  0  0  0  0  0  0  0
    3.4697   -2.0760   -0.9440 O   0  0  0  0  0  0  0  0  0  0  0  0
    2.4601   -1.3540   -1.3770 C   0  0  0  0  0  0  0  0  0  0  0  0
    2.5619   -0.4090   -2.1308 O   0  0  0  0  0  0  0  0  0  0  0  0
    1.1343   -1.8770   -0.8514 C   0  0  0  0  0  0  0  0  0  0  0  0
    0.2981   -0.6899   -0.3968 C   0  0  0  0  0  0  0  0  0  0  0  0
    0.1408    0.0013   -1.2381 H   0  0  0  0  0  0  0  0  0  0  0  0
    1.0226    0.1086    0.6699 C   0  0  0  0  0  0  0  0  0  0  0  0
    2.2258    0.0971    0.7961 O   0  0  0  0  0  0  0  0  0  0  0  0
    0.1890    0.8093    1.4088 O   0  0  0  0  0  0  0  0  0  0  0  0
    0.7306    1.7132    2.3941 C   0  0  0  0  0  0  0  0  0  0  0  0
    1.0394    3.0632    1.7707 C   0  0  0  0  0  0  0  0  0  0  0  0
   -1.3430   -1.2149    0.1872 S   0  0  0  0  0  0  0  0  0  0  0  0
   -2.3146    0.6832    0.1381 P   0  0  0  0  0  0  0  0  0  0  0  0
   -1.5489    2.0375   -1.0507 S   0  0  0  0  0  0  0  0  0  0  0  0
   -3.8155    0.2611   -0.2318 O   0  0  0  0  0  0  0  0  0  0  0  0
   -4.1510   -0.2302   -1.5335 C   0  0  0  0  0  0  0  0  0  0  0  0
   -2.5305    1.1867    1.6183 O   0  0  0  0  0  0  0  0  0  0  0  0
   -3.1775    0.3693    2.6145 C   0  0  0  0  0  0  0  0  0  0  0  0
    6.7396   -2.5880   -1.3559 H   0  0  0  0  0  0  0  0  0  0  0  0
    5.6987   -3.1299   -0.0297 H   0  0  0  0  0  0  0  0  0  0  0  0
    5.4192   -3.7251   -1.6696 H   0  0  0  0  0  0  0  0  0  0  0  0
    4.7767   -1.4143   -2.4020 H   0  0  0  0  0  0  0  0  0  0  0  0
    5.0813   -0.8137   -0.7584 H   0  0  0  0  0  0  0  0  0  0  0  0
    1.3237   -2.5677   -0.0310 H   0  0  0  0  0  0  0  0  0  0  0  0
    0.6181   -2.4000   -1.6575 H   0  0  0  0  0  0  0  0  0  0  0  0
   -0.0531    1.7937    3.1472 H   0  0  0  0  0  0  0  0  0  0  0  0
    1.6315    1.2581    2.8144 H   0  0  0  0  0  0  0  0  0  0  0  0
    1.3692    3.7503    2.5425 H   0  0  0  0  0  0  0  0  0  0  0  0
    1.8235    2.9623    1.0229 H   0  0  0  0  0  0  0  0  0  0  0  0
    0.1500    3.4621    1.2879 H   0  0  0  0  0  0  0  0  0  0  0  0
   -5.2372   -0.2307   -1.5756 H   0  0  0  0  0  0  0  0  0  0  0  0
   -3.7606   -1.2397   -1.6603 H   0  0  0  0  0  0  0  0  0  0  0  0
   -3.7411    0.4280   -2.3013 H   0  0  0  0  0  0  0  0  0  0  0  0
   -2.6496   -0.5787    2.7179 H   0  0  0  0  0  0  0  0  0  0  0  0
   -4.2130    0.1904    2.3325 H   0  0  0  0  0  0  0  0  0  0  0  0
   -3.1230    0.9452    3.5347 H   0  0  0  0  0  0  0  0  0  0  0  0
  1  2  1  0  0  0  0
  2  3  1  0  0  0  0
  3  4  1  0  0  0  0
  4  5  2  0  0  0  0
  4  6  1  0  0  0  0
  6  7  1  0  0  0  0
  7  8  1  0  0  0  0
  7  9  1  0  0  0  0
  9 10  2  0  0  0  0
  9 11  1  0  0  0  0
 11 12  1  0  0  0  0
 12 13  1  0  0  0  0
  7 14  1  0  0  0  0
 14 15  1  0  0  0  0
 15 16  2  0  0  0  0
 15 17  1  0  0  0  0
 17 18  1  0  0  0  0
 15 19  2  0  0  0  0
 19 20  1  0  0  0  0
  1 21  1  0  0  0  0
  1 22  1  0  0  0  0
  1 23  1  0  0  0  0
  2 24  1  0  0  0  0
  2 25  1  0  0  0  0
  6 26  1  0  0  0  0
  6 27  1  0  0  0  0
 12 28  1  0  0  0  0
 12 29  1  0  0  0  0
 13 30  1  0  0  0  0
 13 31  1  0  0  0  0
 13 32  1  0  0  0  0
 18 33  1  0  0  0  0
 18 34  1  0  0  0  0
 18 35  1  0  0  0  0
 20 36  1  0  0  0  0
 20 37  1  0  0  0  0
 20 38  1  0  0  0  0
M  END
