 xtb: 6.7.1 (edcfbbe)
          04092505213D

 41 40  0     0  0            999 V2000
    3.0764    0.1906   -2.7035 C   0  0  0  0  0  0  0  0  0  0  0  0
    3.7044    0.9057   -1.5248 C   0  0  0  0  0  0  0  0  0  0  0  0
    3.4444    0.2365   -0.2788 O   0  0  0  0  0  0  0  0  0  0  0  0
    1.9851    0.1169    0.3439 P   0  0  0  0  0  0  0  0  0  0  0  0
    0.9553    1.7783    0.1838 S   0  0  0  0  0  0  0  0  0  0  0  0
    2.2509   -0.2256    1.8573 O   0  0  0  0  0  0  0  0  0  0  0  0
    3.1022   -1.3051    2.3218 C   0  0  0  0  0  0  0  0  0  0  0  0
    4.4959   -0.7948    2.6255 C   0  0  0  0  0  0  0  0  0  0  0  0
    1.3786   -1.7333   -0.5341 S   0  0  0  0  0  0  0  0  0  0  0  0
   -0.0853   -2.2030    0.4640 C   0  0  0  0  0  0  0  0  0  0  0  0
   -0.8852   -0.8277    1.3193 S   0  0  0  0  0  0  0  0  0  0  0  0
   -1.8667    0.0261   -0.3548 P   0  0  0  0  0  0  0  0  0  0  0  0
   -1.1041    0.0171   -2.1497 S   0  0  0  0  0  0  0  0  0  0  0  0
   -2.2714    1.4797    0.1149 O   0  0  0  0  0  0  0  0  0  0  0  0
   -2.8092    1.7509    1.4320 C   0  0  0  0  0  0  0  0  0  0  0  0
   -3.6603    3.0001    1.3391 C   0  0  0  0  0  0  0  0  0  0  0  0
   -3.1765   -0.8948   -0.2325 O   0  0  0  0  0  0  0  0  0  0  0  0
   -4.1010   -1.0591   -1.3225 C   0  0  0  0  0  0  0  0  0  0  0  0
   -4.9379    0.1859   -1.5369 C   0  0  0  0  0  0  0  0  0  0  0  0
    3.3699   -0.8564   -2.7141 H   0  0  0  0  0  0  0  0  0  0  0  0
    1.9888    0.2482   -2.6443 H   0  0  0  0  0  0  0  0  0  0  0  0
    3.3966    0.6656   -3.6252 H   0  0  0  0  0  0  0  0  0  0  0  0
    3.3261    1.9302   -1.4513 H   0  0  0  0  0  0  0  0  0  0  0  0
    4.7931    0.9146   -1.5933 H   0  0  0  0  0  0  0  0  0  0  0  0
    2.6057   -1.6691    3.2231 H   0  0  0  0  0  0  0  0  0  0  0  0
    3.1291   -2.0901    1.5612 H   0  0  0  0  0  0  0  0  0  0  0  0
    4.4462    0.0220    3.3402 H   0  0  0  0  0  0  0  0  0  0  0  0
    5.0858   -1.6039    3.0446 H   0  0  0  0  0  0  0  0  0  0  0  0
    4.9717   -0.4362    1.7166 H   0  0  0  0  0  0  0  0  0  0  0  0
    0.2293   -2.9010    1.2364 H   0  0  0  0  0  0  0  0  0  0  0  0
   -0.7885   -2.6703   -0.2238 H   0  0  0  0  0  0  0  0  0  0  0  0
   -3.3917    0.8857    1.7621 H   0  0  0  0  0  0  0  0  0  0  0  0
   -1.9606    1.8964    2.1061 H   0  0  0  0  0  0  0  0  0  0  0  0
   -4.0351    3.2483    2.3268 H   0  0  0  0  0  0  0  0  0  0  0  0
   -3.0599    3.8236    0.9628 H   0  0  0  0  0  0  0  0  0  0  0  0
   -4.4965    2.8393    0.6642 H   0  0  0  0  0  0  0  0  0  0  0  0
   -3.5329   -1.2998   -2.2269 H   0  0  0  0  0  0  0  0  0  0  0  0
   -4.7110   -1.9135   -1.0259 H   0  0  0  0  0  0  0  0  0  0  0  0
   -4.2913    1.0189   -1.8134 H   0  0  0  0  0  0  0  0  0  0  0  0
   -5.6480    0.0096   -2.3387 H   0  0  0  0  0  0  0  0  0  0  0  0
   -5.4769    0.4412   -0.6279 H   0  0  0  0  0  0  0  0  0  0  0  0
  1  2  1  0  0  0  0
  2  3  1  0  0  0  0
  3  4  2  0  0  0  0
  4  5  2  0  0  0  0
  4  6  2  0  0  0  0
  6  7  1  0  0  0  0
  7  8  1  0  0  0  0
  4  9  1  0  0  0  0
  9 10  1  0  0  0  0
 10 11  1  0  0  0  0
 11 12  1  0  0  0  0
 12 13  2  0  0  0  0
 12 14  2  0  0  0  0
 14 15  1  0  0  0  0
 15 16  1  0  0  0  0
 12 17  1  0  0  0  0
 17 18  1  0  0  0  0
 18 19  1  0  0  0  0
  1 20  1  0  0  0  0
  1 21  1  0  0  0  0
  1 22  1  0  0  0  0
  2 23  1  0  0  0  0
  2 24  1  0  0  0  0
  7 25  1  0  0  0  0
  7 26  1  0  0  0  0
  8 27  1  0  0  0  0
  8 28  1  0  0  0  0
  8 29  1  0  0  0  0
 10 30  1  0  0  0  0
 10 31  1  0  0  0  0
 15 32  1  0  0  0  0
 15 33  1  0  0  0  0
 16 34  1  0  0  0  0
 16 35  1  0  0  0  0
 16 36  1  0  0  0  0
 18 37  1  0  0  0  0
 18 38  1  0  0  0  0
 19 39  1  0  0  0  0
 19 40  1  0  0  0  0
 19 41  1  0  0  0  0
M  END
