 xtb: 6.7.1 (edcfbbe)
          04092505213D

 41 40  0     0  0            999 V2000
    0.9556   -1.1890   -2.5156 C   0  0  0  0  0  0  0  0  0  0  0  0
    2.3794   -1.1750   -1.9962 C   0  0  0  0  0  0  0  0  0  0  0  0
    2.5621   -0.1241   -1.0141 O   0  0  0  0  0  0  0  0  0  0  0  0
    2.5952   -0.3371    0.5504 P   0  0  0  0  0  0  0  0  0  0  0  0
    3.2117    1.2722    1.4738 S   0  0  0  0  0  0  0  0  0  0  0  0
    3.5238   -1.6222    0.6827 O   0  0  0  0  0  0  0  0  0  0  0  0
    4.1957   -1.9712    1.9079 C   0  0  0  0  0  0  0  0  0  0  0  0
    3.2290   -2.3584    3.0079 C   0  0  0  0  0  0  0  0  0  0  0  0
    0.6724   -1.0465    1.1335 S   0  0  0  0  0  0  0  0  0  0  0  0
   -0.0672    0.5804    1.3866 C   0  0  0  0  0  0  0  0  0  0  0  0
   -0.2457    1.5351   -0.1573 S   0  0  0  0  0  0  0  0  0  0  0  0
   -2.1393    0.8086   -0.7345 P   0  0  0  0  0  0  0  0  0  0  0  0
   -2.7868    1.4033   -2.4842 S   0  0  0  0  0  0  0  0  0  0  0  0
   -3.1065    1.1361    0.4988 O   0  0  0  0  0  0  0  0  0  0  0  0
   -3.8603    2.3614    0.5737 C   0  0  0  0  0  0  0  0  0  0  0  0
   -5.2956    2.1193    0.1492 C   0  0  0  0  0  0  0  0  0  0  0  0
   -1.9173   -0.7440   -0.5424 O   0  0  0  0  0  0  0  0  0  0  0  0
   -2.9880   -1.6825   -0.8124 C   0  0  0  0  0  0  0  0  0  0  0  0
   -2.3821   -3.0696   -0.8524 C   0  0  0  0  0  0  0  0  0  0  0  0
    0.2606   -1.4665   -1.7266 H   0  0  0  0  0  0  0  0  0  0  0  0
    0.6802   -0.2049   -2.8904 H   0  0  0  0  0  0  0  0  0  0  0  0
    0.8803   -1.9089   -3.3248 H   0  0  0  0  0  0  0  0  0  0  0  0
    3.0847   -0.9241   -2.7904 H   0  0  0  0  0  0  0  0  0  0  0  0
    2.6509   -2.1328   -1.5495 H   0  0  0  0  0  0  0  0  0  0  0  0
    4.8360   -2.8063    1.6203 H   0  0  0  0  0  0  0  0  0  0  0  0
    4.8097   -1.1199    2.2166 H   0  0  0  0  0  0  0  0  0  0  0  0
    3.7891   -2.7447    3.8534 H   0  0  0  0  0  0  0  0  0  0  0  0
    2.6623   -1.4865    3.3300 H   0  0  0  0  0  0  0  0  0  0  0  0
    2.5367   -3.1182    2.6548 H   0  0  0  0  0  0  0  0  0  0  0  0
    0.5873    1.1715    2.0275 H   0  0  0  0  0  0  0  0  0  0  0  0
   -1.0439    0.4285    1.8381 H   0  0  0  0  0  0  0  0  0  0  0  0
   -3.7984    2.6740    1.6176 H   0  0  0  0  0  0  0  0  0  0  0  0
   -3.3901    3.1154   -0.0640 H   0  0  0  0  0  0  0  0  0  0  0  0
   -5.8636    3.0359    0.2700 H   0  0  0  0  0  0  0  0  0  0  0  0
   -5.3275    1.8177   -0.8957 H   0  0  0  0  0  0  0  0  0  0  0  0
   -5.7400    1.3372    0.7582 H   0  0  0  0  0  0  0  0  0  0  0  0
   -3.7259   -1.5906   -0.0124 H   0  0  0  0  0  0  0  0  0  0  0  0
   -3.4534   -1.4112   -1.7654 H   0  0  0  0  0  0  0  0  0  0  0  0
   -1.6970   -3.1591   -1.6904 H   0  0  0  0  0  0  0  0  0  0  0  0
   -1.8387   -3.2596    0.0693 H   0  0  0  0  0  0  0  0  0  0  0  0
   -3.1765   -3.8006   -0.9619 H   0  0  0  0  0  0  0  0  0  0  0  0
  1  2  1  0  0  0  0
  2  3  1  0  0  0  0
  3  4  2  0  0  0  0
  4  5  2  0  0  0  0
  4  6  2  0  0  0  0
  6  7  1  0  0  0  0
  7  8  1  0  0  0  0
  4  9  1  0  0  0  0
  9 10  1  0  0  0  0
 10 11  1  0  0  0  0
 11 12  1  0  0  0  0
 12 13  2  0  0  0  0
 12 14  1  0  0  0  0
 14 15  1  0  0  0  0
 15 16  1  0  0  0  0
 12 17  2  0  0  0  0
 17 18  1  0  0  0  0
 18 19  1  0  0  0  0
  1 20  1  0  0  0  0
  1 21  1  0  0  0  0
  1 22  1  0  0  0  0
  2 23  1  0  0  0  0
  2 24  1  0  0  0  0
  7 25  1  0  0  0  0
  7 26  1  0  0  0  0
  8 27  1  0  0  0  0
  8 28  1  0  0  0  0
  8 29  1  0  0  0  0
 10 30  1  0  0  0  0
 10 31  1  0  0  0  0
 15 32  1  0  0  0  0
 15 33  1  0  0  0  0
 16 34  1  0  0  0  0
 16 35  1  0  0  0  0
 16 36  1  0  0  0  0
 18 37  1  0  0  0  0
 18 38  1  0  0  0  0
 19 39  1  0  0  0  0
 19 40  1  0  0  0  0
 19 41  1  0  0  0  0
M  END
