 xtb: 6.7.1 (edcfbbe)
          04092505213D

 41 40  0     0  0            999 V2000
    3.3245   -0.1571   -2.3241 C   0  0  0  0  0  0  0  0  0  0  0  0
    2.1678    0.7897   -2.0961 C   0  0  0  0  0  0  0  0  0  0  0  0
    1.7603    0.9523   -0.7110 O   0  0  0  0  0  0  0  0  0  0  0  0
    2.0370    0.1138    0.5880 P   0  0  0  0  0  0  0  0  0  0  0  0
    1.1820    1.0318    2.0927 S   0  0  0  0  0  0  0  0  0  0  0  0
    3.6198    0.0316    0.6619 O   0  0  0  0  0  0  0  0  0  0  0  0
    4.3668   -0.9470    1.4066 C   0  0  0  0  0  0  0  0  0  0  0  0
    3.9472   -1.0304    2.8591 C   0  0  0  0  0  0  0  0  0  0  0  0
    1.4869   -1.9247    0.2427 S   0  0  0  0  0  0  0  0  0  0  0  0
   -0.1847   -1.7334   -0.4087 C   0  0  0  0  0  0  0  0  0  0  0  0
   -1.3919   -1.0791    0.8009 S   0  0  0  0  0  0  0  0  0  0  0  0
   -2.3943    0.3347   -0.4337 P   0  0  0  0  0  0  0  0  0  0  0  0
   -1.4682    0.8215   -2.0978 S   0  0  0  0  0  0  0  0  0  0  0  0
   -2.8607    1.4751    0.5536 O   0  0  0  0  0  0  0  0  0  0  0  0
   -2.0336    2.3268    1.3608 C   0  0  0  0  0  0  0  0  0  0  0  0
   -1.1921    3.2720    0.5274 C   0  0  0  0  0  0  0  0  0  0  0  0
   -3.8569   -0.2295   -0.6616 O   0  0  0  0  0  0  0  0  0  0  0  0
   -4.2361   -0.9740   -1.8302 C   0  0  0  0  0  0  0  0  0  0  0  0
   -3.6355   -2.3660   -1.8370 C   0  0  0  0  0  0  0  0  0  0  0  0
    3.5255   -0.1926   -3.3909 H   0  0  0  0  0  0  0  0  0  0  0  0
    4.2134    0.1942   -1.8075 H   0  0  0  0  0  0  0  0  0  0  0  0
    3.0822   -1.1602   -1.9806 H   0  0  0  0  0  0  0  0  0  0  0  0
    1.2732    0.4691   -2.6379 H   0  0  0  0  0  0  0  0  0  0  0  0
    2.4222    1.8046   -2.4086 H   0  0  0  0  0  0  0  0  0  0  0  0
    4.2440   -1.9155    0.9141 H   0  0  0  0  0  0  0  0  0  0  0  0
    5.4001   -0.6087    1.3106 H   0  0  0  0  0  0  0  0  0  0  0  0
    2.9177   -1.3787    2.9341 H   0  0  0  0  0  0  0  0  0  0  0  0
    4.5945   -1.7269    3.3822 H   0  0  0  0  0  0  0  0  0  0  0  0
    4.0127   -0.0526    3.3310 H   0  0  0  0  0  0  0  0  0  0  0  0
   -0.4851   -2.7415   -0.6854 H   0  0  0  0  0  0  0  0  0  0  0  0
   -0.1796   -1.0645   -1.2739 H   0  0  0  0  0  0  0  0  0  0  0  0
   -2.7536    2.8733    1.9726 H   0  0  0  0  0  0  0  0  0  0  0  0
   -1.3969    1.7150    2.0067 H   0  0  0  0  0  0  0  0  0  0  0  0
   -0.6926    3.9746    1.1868 H   0  0  0  0  0  0  0  0  0  0  0  0
   -0.4312    2.7189   -0.0223 H   0  0  0  0  0  0  0  0  0  0  0  0
   -1.8156    3.8130   -0.1803 H   0  0  0  0  0  0  0  0  0  0  0  0
   -5.3250   -1.0058   -1.7751 H   0  0  0  0  0  0  0  0  0  0  0  0
   -3.9264   -0.4153   -2.7195 H   0  0  0  0  0  0  0  0  0  0  0  0
   -2.5599   -2.3035   -1.9937 H   0  0  0  0  0  0  0  0  0  0  0  0
   -3.8307   -2.8633   -0.8902 H   0  0  0  0  0  0  0  0  0  0  0  0
   -4.0755   -2.9430   -2.6441 H   0  0  0  0  0  0  0  0  0  0  0  0
  1  2  1  0  0  0  0
  2  3  1  0  0  0  0
  3  4  2  0  0  0  0
  4  5  2  0  0  0  0
  4  6  2  0  0  0  0
  6  7  1  0  0  0  0
  7  8  1  0  0  0  0
  4  9  1  0  0  0  0
  9 10  1  0  0  0  0
 10 11  1  0  0  0  0
 11 12  1  0  0  0  0
 12 13  2  0  0  0  0
 12 14  2  0  0  0  0
 14 15  1  0  0  0  0
 15 16  1  0  0  0  0
 12 17  2  0  0  0  0
 17 18  1  0  0  0  0
 18 19  1  0  0  0  0
  1 20  1  0  0  0  0
  1 21  1  0  0  0  0
  1 22  1  0  0  0  0
  2 23  1  0  0  0  0
  2 24  1  0  0  0  0
  7 25  1  0  0  0  0
  7 26  1  0  0  0  0
  8 27  1  0  0  0  0
  8 28  1  0  0  0  0
  8 29  1  0  0  0  0
 10 30  1  0  0  0  0
 10 31  1  0  0  0  0
 15 32  1  0  0  0  0
 15 33  1  0  0  0  0
 16 34  1  0  0  0  0
 16 35  1  0  0  0  0
 16 36  1  0  0  0  0
 18 37  1  0  0  0  0
 18 38  1  0  0  0  0
 19 39  1  0  0  0  0
 19 40  1  0  0  0  0
 19 41  1  0  0  0  0
M  END
