 xtb: 6.7.1 (edcfbbe)
          04092505213D

 41 40  0     0  0            999 V2000
    2.8690   -2.7491    1.7457 C   0  0  0  0  0  0  0  0  0  0  0  0
    1.5910   -2.6865    0.9377 C   0  0  0  0  0  0  0  0  0  0  0  0
    1.2661   -1.3308    0.5565 O   0  0  0  0  0  0  0  0  0  0  0  0
    2.1594   -0.5198   -0.4651 P   0  0  0  0  0  0  0  0  0  0  0  0
    2.9313   -1.5449   -1.9436 S   0  0  0  0  0  0  0  0  0  0  0  0
    3.1778    0.2199    0.5177 O   0  0  0  0  0  0  0  0  0  0  0  0
    4.2745    1.0054    0.0121 C   0  0  0  0  0  0  0  0  0  0  0  0
    5.5476    0.1826   -0.0277 C   0  0  0  0  0  0  0  0  0  0  0  0
    0.8179    1.0073   -1.0568 S   0  0  0  0  0  0  0  0  0  0  0  0
    0.3532    1.6412    0.5863 C   0  0  0  0  0  0  0  0  0  0  0  0
   -0.8557    0.6167    1.4539 S   0  0  0  0  0  0  0  0  0  0  0  0
   -2.3802    0.7147   -0.0306 P   0  0  0  0  0  0  0  0  0  0  0  0
   -2.5467    2.4116   -0.9874 S   0  0  0  0  0  0  0  0  0  0  0  0
   -3.6486    0.1530    0.7450 O   0  0  0  0  0  0  0  0  0  0  0  0
   -4.1138    0.6226    2.0259 C   0  0  0  0  0  0  0  0  0  0  0  0
   -4.3226    2.1214    2.0642 C   0  0  0  0  0  0  0  0  0  0  0  0
   -2.0956   -0.4467   -1.0626 O   0  0  0  0  0  0  0  0  0  0  0  0
   -1.9435   -1.8356   -0.6915 C   0  0  0  0  0  0  0  0  0  0  0  0
   -3.2257   -2.6015   -0.9434 C   0  0  0  0  0  0  0  0  0  0  0  0
    3.0230   -3.7646    2.0970 H   0  0  0  0  0  0  0  0  0  0  0  0
    3.7126   -2.4584    1.1215 H   0  0  0  0  0  0  0  0  0  0  0  0
    2.8088   -2.0752    2.5961 H   0  0  0  0  0  0  0  0  0  0  0  0
    0.7262   -3.0064    1.5203 H   0  0  0  0  0  0  0  0  0  0  0  0
    1.6774   -3.2897    0.0286 H   0  0  0  0  0  0  0  0  0  0  0  0
    4.0217    1.3824   -0.9841 H   0  0  0  0  0  0  0  0  0  0  0  0
    4.3663    1.8430    0.7064 H   0  0  0  0  0  0  0  0  0  0  0  0
    5.7664   -0.2145    0.9594 H   0  0  0  0  0  0  0  0  0  0  0  0
    5.4381   -0.6437   -0.7269 H   0  0  0  0  0  0  0  0  0  0  0  0
    6.3699    0.8119   -0.3523 H   0  0  0  0  0  0  0  0  0  0  0  0
   -0.0797    2.6238    0.4007 H   0  0  0  0  0  0  0  0  0  0  0  0
    1.2312    1.6994    1.2245 H   0  0  0  0  0  0  0  0  0  0  0  0
   -5.0534    0.0861    2.1694 H   0  0  0  0  0  0  0  0  0  0  0  0
   -3.3885    0.3139    2.7838 H   0  0  0  0  0  0  0  0  0  0  0  0
   -4.7531    2.4008    3.0204 H   0  0  0  0  0  0  0  0  0  0  0  0
   -3.3722    2.6374    1.9370 H   0  0  0  0  0  0  0  0  0  0  0  0
   -4.9890    2.4326    1.2632 H   0  0  0  0  0  0  0  0  0  0  0  0
   -1.1286   -2.2025   -1.3211 H   0  0  0  0  0  0  0  0  0  0  0  0
   -1.6462   -1.8923    0.3601 H   0  0  0  0  0  0  0  0  0  0  0  0
   -3.0656   -3.6497   -0.7112 H   0  0  0  0  0  0  0  0  0  0  0  0
   -4.0248   -2.2097   -0.3197 H   0  0  0  0  0  0  0  0  0  0  0  0
   -3.5160   -2.5042   -1.9858 H   0  0  0  0  0  0  0  0  0  0  0  0
  1  2  1  0  0  0  0
  2  3  1  0  0  0  0
  3  4  2  0  0  0  0
  4  5  2  0  0  0  0
  4  6  1  0  0  0  0
  6  7  1  0  0  0  0
  7  8  1  0  0  0  0
  4  9  1  0  0  0  0
  9 10  1  0  0  0  0
 10 11  1  0  0  0  0
 11 12  1  0  0  0  0
 12 13  2  0  0  0  0
 12 14  2  0  0  0  0
 14 15  1  0  0  0  0
 15 16  1  0  0  0  0
 12 17  2  0  0  0  0
 17 18  1  0  0  0  0
 18 19  1  0  0  0  0
  1 20  1  0  0  0  0
  1 21  1  0  0  0  0
  1 22  1  0  0  0  0
  2 23  1  0  0  0  0
  2 24  1  0  0  0  0
  7 25  1  0  0  0  0
  7 26  1  0  0  0  0
  8 27  1  0  0  0  0
  8 28  1  0  0  0  0
  8 29  1  0  0  0  0
 10 30  1  0  0  0  0
 10 31  1  0  0  0  0
 15 32  1  0  0  0  0
 15 33  1  0  0  0  0
 16 34  1  0  0  0  0
 16 35  1  0  0  0  0
 16 36  1  0  0  0  0
 18 37  1  0  0  0  0
 18 38  1  0  0  0  0
 19 39  1  0  0  0  0
 19 40  1  0  0  0  0
 19 41  1  0  0  0  0
M  END
