 xtb: 6.7.1 (edcfbbe)
          04092505203D

 41 40  0     0  0            999 V2000
    5.3824   -0.0485   -1.5739 C   0  0  0  0  0  0  0  0  0  0  0  0
    5.0104   -0.4765   -0.1698 C   0  0  0  0  0  0  0  0  0  0  0  0
    3.6391   -0.9188   -0.0711 O   0  0  0  0  0  0  0  0  0  0  0  0
    2.3735   -0.0297   -0.4081 P   0  0  0  0  0  0  0  0  0  0  0  0
    1.9000    0.1883   -2.3039 S   0  0  0  0  0  0  0  0  0  0  0  0
    2.7370    1.3131    0.3626 O   0  0  0  0  0  0  0  0  0  0  0  0
    1.9851    2.5342    0.2655 C   0  0  0  0  0  0  0  0  0  0  0  0
    1.1316    2.7311    1.5022 C   0  0  0  0  0  0  0  0  0  0  0  0
    0.9794   -1.0810    0.7769 S   0  0  0  0  0  0  0  0  0  0  0  0
   -0.0884   -1.7789   -0.5353 C   0  0  0  0  0  0  0  0  0  0  0  0
   -1.7995   -1.9083    0.0036 S   0  0  0  0  0  0  0  0  0  0  0  0
   -2.1712    0.1711    0.3104 P   0  0  0  0  0  0  0  0  0  0  0  0
   -1.3217    1.4133   -0.9436 S   0  0  0  0  0  0  0  0  0  0  0  0
   -1.7456    0.4860    1.7947 O   0  0  0  0  0  0  0  0  0  0  0  0
   -1.8653   -0.3939    2.9398 C   0  0  0  0  0  0  0  0  0  0  0  0
   -3.2743   -0.9050    3.1438 C   0  0  0  0  0  0  0  0  0  0  0  0
   -3.7552    0.2762    0.3714 O   0  0  0  0  0  0  0  0  0  0  0  0
   -4.5685    0.4781   -0.7960 C   0  0  0  0  0  0  0  0  0  0  0  0
   -4.5324   -0.7094   -1.7367 C   0  0  0  0  0  0  0  0  0  0  0  0
    4.8028    0.8261   -1.8667 H   0  0  0  0  0  0  0  0  0  0  0  0
    6.4389    0.1981   -1.6083 H   0  0  0  0  0  0  0  0  0  0  0  0
    5.1750   -0.8482   -2.2811 H   0  0  0  0  0  0  0  0  0  0  0  0
    5.1584    0.3398    0.5404 H   0  0  0  0  0  0  0  0  0  0  0  0
    5.5793   -1.3528    0.1455 H   0  0  0  0  0  0  0  0  0  0  0  0
    2.7356    3.3222    0.1753 H   0  0  0  0  0  0  0  0  0  0  0  0
    1.3711    2.5129   -0.6413 H   0  0  0  0  0  0  0  0  0  0  0  0
    1.7475    2.6636    2.3945 H   0  0  0  0  0  0  0  0  0  0  0  0
    0.6623    3.7085    1.4556 H   0  0  0  0  0  0  0  0  0  0  0  0
    0.3513    1.9742    1.5519 H   0  0  0  0  0  0  0  0  0  0  0  0
    0.2398   -2.7894   -0.7655 H   0  0  0  0  0  0  0  0  0  0  0  0
   -0.0164   -1.1289   -1.4128 H   0  0  0  0  0  0  0  0  0  0  0  0
   -1.1585   -1.2181    2.8055 H   0  0  0  0  0  0  0  0  0  0  0  0
   -1.5401    0.2360    3.7691 H   0  0  0  0  0  0  0  0  0  0  0  0
   -3.9714   -0.0733    3.2015 H   0  0  0  0  0  0  0  0  0  0  0  0
   -3.5648   -1.5518    2.3185 H   0  0  0  0  0  0  0  0  0  0  0  0
   -3.3129   -1.4726    4.0684 H   0  0  0  0  0  0  0  0  0  0  0  0
   -5.5682    0.6397   -0.3904 H   0  0  0  0  0  0  0  0  0  0  0  0
   -4.2239    1.3831   -1.3065 H   0  0  0  0  0  0  0  0  0  0  0  0
   -5.2632   -0.5635   -2.5257 H   0  0  0  0  0  0  0  0  0  0  0  0
   -3.5448   -0.7995   -2.1867 H   0  0  0  0  0  0  0  0  0  0  0  0
   -4.7582   -1.6266   -1.1990 H   0  0  0  0  0  0  0  0  0  0  0  0
  1  2  1  0  0  0  0
  2  3  1  0  0  0  0
  3  4  2  0  0  0  0
  4  5  2  0  0  0  0
  4  6  2  0  0  0  0
  6  7  1  0  0  0  0
  7  8  1  0  0  0  0
  4  9  1  0  0  0  0
  9 10  1  0  0  0  0
 10 11  1  0  0  0  0
 11 12  1  0  0  0  0
 12 13  2  0  0  0  0
 12 14  2  0  0  0  0
 14 15  1  0  0  0  0
 15 16  1  0  0  0  0
 12 17  2  0  0  0  0
 17 18  1  0  0  0  0
 18 19  1  0  0  0  0
  1 20  1  0  0  0  0
  1 21  1  0  0  0  0
  1 22  1  0  0  0  0
  2 23  1  0  0  0  0
  2 24  1  0  0  0  0
  7 25  1  0  0  0  0
  7 26  1  0  0  0  0
  8 27  1  0  0  0  0
  8 28  1  0  0  0  0
  8 29  1  0  0  0  0
 10 30  1  0  0  0  0
 10 31  1  0  0  0  0
 15 32  1  0  0  0  0
 15 33  1  0  0  0  0
 16 34  1  0  0  0  0
 16 35  1  0  0  0  0
 16 36  1  0  0  0  0
 18 37  1  0  0  0  0
 18 38  1  0  0  0  0
 19 39  1  0  0  0  0
 19 40  1  0  0  0  0
 19 41  1  0  0  0  0
M  END
