 xtb: 6.7.1 (edcfbbe)
          04092505203D

 41 40  0     0  0            999 V2000
    0.6929   -3.1297    0.8847 C   0  0  0  0  0  0  0  0  0  0  0  0
    0.7144   -1.8758    1.7377 C   0  0  0  0  0  0  0  0  0  0  0  0
    1.9753   -1.1892    1.6664 O   0  0  0  0  0  0  0  0  0  0  0  0
    2.5040   -0.3541    0.4303 P   0  0  0  0  0  0  0  0  0  0  0  0
    3.0974   -1.3209   -1.1752 S   0  0  0  0  0  0  0  0  0  0  0  0
    3.6589    0.3651    1.2342 O   0  0  0  0  0  0  0  0  0  0  0  0
    4.7964    0.9445    0.5731 C   0  0  0  0  0  0  0  0  0  0  0  0
    4.4333    2.2113   -0.1763 C   0  0  0  0  0  0  0  0  0  0  0  0
    1.0334    1.1644    0.0975 S   0  0  0  0  0  0  0  0  0  0  0  0
    0.4425    0.6236   -1.5262 C   0  0  0  0  0  0  0  0  0  0  0  0
   -0.7932   -0.6984   -1.4414 S   0  0  0  0  0  0  0  0  0  0  0  0
   -2.3237    0.4851   -0.5906 P   0  0  0  0  0  0  0  0  0  0  0  0
   -2.4977    2.3251   -1.2262 S   0  0  0  0  0  0  0  0  0  0  0  0
   -1.9622    0.3516    0.9658 O   0  0  0  0  0  0  0  0  0  0  0  0
   -2.2519    1.3956    1.9095 C   0  0  0  0  0  0  0  0  0  0  0  0
   -3.7249    1.4131    2.2630 C   0  0  0  0  0  0  0  0  0  0  0  0
   -3.6485   -0.3394   -0.8551 O   0  0  0  0  0  0  0  0  0  0  0  0
   -3.7592   -1.7821   -0.8738 C   0  0  0  0  0  0  0  0  0  0  0  0
   -3.5387   -2.3948    0.4933 C   0  0  0  0  0  0  0  0  0  0  0  0
    1.5482   -3.7562    1.1245 H   0  0  0  0  0  0  0  0  0  0  0  0
   -0.2209   -3.6820    1.0793 H   0  0  0  0  0  0  0  0  0  0  0  0
    0.7328   -2.8760   -0.1732 H   0  0  0  0  0  0  0  0  0  0  0  0
    0.6158   -2.1180    2.7978 H   0  0  0  0  0  0  0  0  0  0  0  0
   -0.0854   -1.1869    1.4470 H   0  0  0  0  0  0  0  0  0  0  0  0
    5.4975    1.1448    1.3843 H   0  0  0  0  0  0  0  0  0  0  0  0
    5.2218    0.2014   -0.1096 H   0  0  0  0  0  0  0  0  0  0  0  0
    3.7872    1.9741   -1.0206 H   0  0  0  0  0  0  0  0  0  0  0  0
    3.9119    2.9023    0.4814 H   0  0  0  0  0  0  0  0  0  0  0  0
    5.3381    2.6810   -0.5485 H   0  0  0  0  0  0  0  0  0  0  0  0
    1.2781    0.2222   -2.1018 H   0  0  0  0  0  0  0  0  0  0  0  0
    0.0007    1.4958   -2.0072 H   0  0  0  0  0  0  0  0  0  0  0  0
   -1.6260    1.1646    2.7726 H   0  0  0  0  0  0  0  0  0  0  0  0
   -1.9445    2.3538    1.4783 H   0  0  0  0  0  0  0  0  0  0  0  0
   -4.0249    0.4574    2.6843 H   0  0  0  0  0  0  0  0  0  0  0  0
   -3.9150    2.2009    2.9849 H   0  0  0  0  0  0  0  0  0  0  0  0
   -4.3120    1.6048    1.3648 H   0  0  0  0  0  0  0  0  0  0  0  0
   -4.7753   -1.9515   -1.2337 H   0  0  0  0  0  0  0  0  0  0  0  0
   -3.0400   -2.1737   -1.5982 H   0  0  0  0  0  0  0  0  0  0  0  0
   -3.6940   -3.4672    0.4284 H   0  0  0  0  0  0  0  0  0  0  0  0
   -2.5232   -2.2020    0.8317 H   0  0  0  0  0  0  0  0  0  0  0  0
   -4.2383   -1.9754    1.2114 H   0  0  0  0  0  0  0  0  0  0  0  0
  1  2  1  0  0  0  0
  2  3  1  0  0  0  0
  3  4  2  0  0  0  0
  4  5  2  0  0  0  0
  4  6  2  0  0  0  0
  6  7  1  0  0  0  0
  7  8  1  0  0  0  0
  4  9  1  0  0  0  0
  9 10  1  0  0  0  0
 10 11  1  0  0  0  0
 11 12  1  0  0  0  0
 12 13  2  0  0  0  0
 12 14  1  0  0  0  0
 14 15  1  0  0  0  0
 15 16  1  0  0  0  0
 12 17  2  0  0  0  0
 17 18  1  0  0  0  0
 18 19  1  0  0  0  0
  1 20  1  0  0  0  0
  1 21  1  0  0  0  0
  1 22  1  0  0  0  0
  2 23  1  0  0  0  0
  2 24  1  0  0  0  0
  7 25  1  0  0  0  0
  7 26  1  0  0  0  0
  8 27  1  0  0  0  0
  8 28  1  0  0  0  0
  8 29  1  0  0  0  0
 10 30  1  0  0  0  0
 10 31  1  0  0  0  0
 15 32  1  0  0  0  0
 15 33  1  0  0  0  0
 16 34  1  0  0  0  0
 16 35  1  0  0  0  0
 16 36  1  0  0  0  0
 18 37  1  0  0  0  0
 18 38  1  0  0  0  0
 19 39  1  0  0  0  0
 19 40  1  0  0  0  0
 19 41  1  0  0  0  0
M  END
