 xtb: 6.7.1 (edcfbbe)
          04092505213D

 41 40  0     0  0            999 V2000
    2.7495   -0.5931   -3.1298 C   0  0  0  0  0  0  0  0  0  0  0  0
    2.9316    0.1654   -1.8328 C   0  0  0  0  0  0  0  0  0  0  0  0
    2.2408   -0.5629   -0.7926 O   0  0  0  0  0  0  0  0  0  0  0  0
    1.8846    0.1204    0.5857 P   0  0  0  0  0  0  0  0  0  0  0  0
    1.2803    1.9918    0.5696 S   0  0  0  0  0  0  0  0  0  0  0  0
    3.2528   -0.0394    1.3886 O   0  0  0  0  0  0  0  0  0  0  0  0
    3.5935    0.7148    2.5647 C   0  0  0  0  0  0  0  0  0  0  0  0
    5.0715    1.0491    2.5107 C   0  0  0  0  0  0  0  0  0  0  0  0
    0.7282   -1.4118    1.4625 S   0  0  0  0  0  0  0  0  0  0  0  0
   -0.2472   -2.1117    0.0850 C   0  0  0  0  0  0  0  0  0  0  0  0
   -2.0156   -1.7723    0.2003 S   0  0  0  0  0  0  0  0  0  0  0  0
   -1.9971    0.1686   -0.6695 P   0  0  0  0  0  0  0  0  0  0  0  0
   -0.6668    0.4299   -2.0785 S   0  0  0  0  0  0  0  0  0  0  0  0
   -1.7916    1.2312    0.4736 O   0  0  0  0  0  0  0  0  0  0  0  0
   -2.6240    1.3430    1.6556 C   0  0  0  0  0  0  0  0  0  0  0  0
   -1.8934    0.8029    2.8689 C   0  0  0  0  0  0  0  0  0  0  0  0
   -3.5238    0.4057   -1.0388 O   0  0  0  0  0  0  0  0  0  0  0  0
   -4.3654   -0.5220   -1.7521 C   0  0  0  0  0  0  0  0  0  0  0  0
   -3.7813   -0.9413   -3.0843 C   0  0  0  0  0  0  0  0  0  0  0  0
    3.1123   -1.6107   -3.0188 H   0  0  0  0  0  0  0  0  0  0  0  0
    1.6960   -0.6138   -3.3986 H   0  0  0  0  0  0  0  0  0  0  0  0
    3.3068   -0.0917   -3.9140 H   0  0  0  0  0  0  0  0  0  0  0  0
    2.5039    1.1720   -1.8950 H   0  0  0  0  0  0  0  0  0  0  0  0
    3.9838    0.2363   -1.5474 H   0  0  0  0  0  0  0  0  0  0  0  0
    2.9822    1.6238    2.5876 H   0  0  0  0  0  0  0  0  0  0  0  0
    3.3566    0.0934    3.4315 H   0  0  0  0  0  0  0  0  0  0  0  0
    5.2797    1.6888    1.6571 H   0  0  0  0  0  0  0  0  0  0  0  0
    5.3513    1.5678    3.4217 H   0  0  0  0  0  0  0  0  0  0  0  0
    5.6546    0.1372    2.4202 H   0  0  0  0  0  0  0  0  0  0  0  0
   -0.1355   -3.1907    0.1456 H   0  0  0  0  0  0  0  0  0  0  0  0
    0.1344   -1.7182   -0.8582 H   0  0  0  0  0  0  0  0  0  0  0  0
   -2.8125    2.4133    1.7531 H   0  0  0  0  0  0  0  0  0  0  0  0
   -3.5643    0.8153    1.4830 H   0  0  0  0  0  0  0  0  0  0  0  0
   -1.7504   -0.2729    2.7935 H   0  0  0  0  0  0  0  0  0  0  0  0
   -0.9187    1.2792    2.9514 H   0  0  0  0  0  0  0  0  0  0  0  0
   -2.4739    1.0229    3.7589 H   0  0  0  0  0  0  0  0  0  0  0  0
   -4.5315   -1.3919   -1.1110 H   0  0  0  0  0  0  0  0  0  0  0  0
   -5.2981    0.0300   -1.8807 H   0  0  0  0  0  0  0  0  0  0  0  0
   -3.5525   -0.0677   -3.6903 H   0  0  0  0  0  0  0  0  0  0  0  0
   -2.8612   -1.5033   -2.9322 H   0  0  0  0  0  0  0  0  0  0  0  0
   -4.4963   -1.5664   -3.6093 H   0  0  0  0  0  0  0  0  0  0  0  0
  1  2  1  0  0  0  0
  2  3  1  0  0  0  0
  3  4  2  0  0  0  0
  4  5  2  0  0  0  0
  4  6  2  0  0  0  0
  6  7  1  0  0  0  0
  7  8  1  0  0  0  0
  4  9  1  0  0  0  0
  9 10  1  0  0  0  0
 10 11  1  0  0  0  0
 11 12  1  0  0  0  0
 12 13  2  0  0  0  0
 12 14  2  0  0  0  0
 14 15  1  0  0  0  0
 15 16  1  0  0  0  0
 12 17  2  0  0  0  0
 17 18  1  0  0  0  0
 18 19  1  0  0  0  0
  1 20  1  0  0  0  0
  1 21  1  0  0  0  0
  1 22  1  0  0  0  0
  2 23  1  0  0  0  0
  2 24  1  0  0  0  0
  7 25  1  0  0  0  0
  7 26  1  0  0  0  0
  8 27  1  0  0  0  0
  8 28  1  0  0  0  0
  8 29  1  0  0  0  0
 10 30  1  0  0  0  0
 10 31  1  0  0  0  0
 15 32  1  0  0  0  0
 15 33  1  0  0  0  0
 16 34  1  0  0  0  0
 16 35  1  0  0  0  0
 16 36  1  0  0  0  0
 18 37  1  0  0  0  0
 18 38  1  0  0  0  0
 19 39  1  0  0  0  0
 19 40  1  0  0  0  0
 19 41  1  0  0  0  0
M  END
