 xtb: 6.7.1 (edcfbbe)
          04092507313D

 38 37  0     0  0            999 V2000
    1.3851   -3.7242   -2.0898 C   0  0  0  0  0  0  0  0  0  0  0  0
    2.6209   -2.8444   -2.1909 C   0  0  0  0  0  0  0  0  0  0  0  0
    2.4325   -1.6322   -1.4381 O   0  0  0  0  0  0  0  0  0  0  0  0
    2.8548   -1.5920   -0.1889 C   0  0  0  0  0  0  0  0  0  0  0  0
    3.4644   -2.4801    0.3617 O   0  0  0  0  0  0  0  0  0  0  0  0
    2.5118   -0.2727    0.4804 C   0  0  0  0  0  0  0  0  0  0  0  0
    1.0904    0.1652    0.1518 C   0  0  0  0  0  0  0  0  0  0  0  0
    0.9653    0.2577   -0.9332 H   0  0  0  0  0  0  0  0  0  0  0  0
    0.7169    1.4975    0.7677 C   0  0  0  0  0  0  0  0  0  0  0  0
   -0.3729    1.6886    1.2734 O   0  0  0  0  0  0  0  0  0  0  0  0
    1.6655    2.3826    0.6672 O   0  0  0  0  0  0  0  0  0  0  0  0
    1.3905    3.7363    1.0941 C   0  0  0  0  0  0  0  0  0  0  0  0
    0.7383    4.5217   -0.0314 C   0  0  0  0  0  0  0  0  0  0  0  0
   -0.1233   -1.0779    0.7377 S   0  0  0  0  0  0  0  0  0  0  0  0
   -1.9097   -0.0646    0.1986 P   0  0  0  0  0  0  0  0  0  0  0  0
   -1.8380    1.1915   -1.3136 S   0  0  0  0  0  0  0  0  0  0  0  0
   -2.8320   -1.3354   -0.1310 O   0  0  0  0  0  0  0  0  0  0  0  0
   -2.5697   -2.1668   -1.2629 C   0  0  0  0  0  0  0  0  0  0  0  0
   -2.7461    0.3259    1.4868 O   0  0  0  0  0  0  0  0  0  0  0  0
   -3.0750    1.6543    1.8977 C   0  0  0  0  0  0  0  0  0  0  0  0
    1.2113   -4.0026   -1.0525 H   0  0  0  0  0  0  0  0  0  0  0  0
    0.5149   -3.1904   -2.4629 H   0  0  0  0  0  0  0  0  0  0  0  0
    1.5325   -4.6230   -2.6790 H   0  0  0  0  0  0  0  0  0  0  0  0
    2.7912   -2.5148   -3.2162 H   0  0  0  0  0  0  0  0  0  0  0  0
    3.5023   -3.3628   -1.8037 H   0  0  0  0  0  0  0  0  0  0  0  0
    3.2048    0.4904    0.1200 H   0  0  0  0  0  0  0  0  0  0  0  0
    2.6448   -0.3991    1.5550 H   0  0  0  0  0  0  0  0  0  0  0  0
    0.7437    3.7019    1.9742 H   0  0  0  0  0  0  0  0  0  0  0  0
    2.3687    4.1413    1.3517 H   0  0  0  0  0  0  0  0  0  0  0  0
    1.3888    4.5443   -0.9010 H   0  0  0  0  0  0  0  0  0  0  0  0
   -0.2057    4.0602   -0.3164 H   0  0  0  0  0  0  0  0  0  0  0  0
    0.5477    5.5365    0.3009 H   0  0  0  0  0  0  0  0  0  0  0  0
   -3.4552   -2.7855   -1.3842 H   0  0  0  0  0  0  0  0  0  0  0  0
   -1.6933   -2.7888   -1.0769 H   0  0  0  0  0  0  0  0  0  0  0  0
   -2.4119   -1.5525   -2.1521 H   0  0  0  0  0  0  0  0  0  0  0  0
   -2.4090    1.9532    2.7047 H   0  0  0  0  0  0  0  0  0  0  0  0
   -4.1075    1.6169    2.2384 H   0  0  0  0  0  0  0  0  0  0  0  0
   -2.9758    2.3488    1.0619 H   0  0  0  0  0  0  0  0  0  0  0  0
  1  2  1  0  0  0  0
  2  3  1  0  0  0  0
  3  4  1  0  0  0  0
  4  5  2  0  0  0  0
  4  6  1  0  0  0  0
  6  7  1  0  0  0  0
  7  8  1  0  0  0  0
  7  9  1  0  0  0  0
  9 10  2  0  0  0  0
  9 11  4  0  0  0  0
 11 12  1  0  0  0  0
 12 13  1  0  0  0  0
  7 14  1  0  0  0  0
 14 15  1  0  0  0  0
 15 16  2  0  0  0  0
 15 17  1  0  0  0  0
 17 18  1  0  0  0  0
 15 19  2  0  0  0  0
 19 20  1  0  0  0  0
  1 21  1  0  0  0  0
  1 22  1  0  0  0  0
  1 23  1  0  0  0  0
  2 24  1  0  0  0  0
  2 25  1  0  0  0  0
  6 26  1  0  0  0  0
  6 27  1  0  0  0  0
 12 28  1  0  0  0  0
 12 29  1  0  0  0  0
 13 30  1  0  0  0  0
 13 31  1  0  0  0  0
 13 32  1  0  0  0  0
 18 33  1  0  0  0  0
 18 34  1  0  0  0  0
 18 35  1  0  0  0  0
 20 36  1  0  0  0  0
 20 37  1  0  0  0  0
 20 38  1  0  0  0  0
M  END
