 xtb: 6.7.1 (edcfbbe)
          04092505213D

 41 40  0     0  0            999 V2000
    1.8060   -0.4050   -3.7116 C   0  0  0  0  0  0  0  0  0  0  0  0
    2.1002   -0.9721   -2.3385 C   0  0  0  0  0  0  0  0  0  0  0  0
    2.1041    0.1377   -1.4036 O   0  0  0  0  0  0  0  0  0  0  0  0
    2.3078   -0.0527    0.1455 P   0  0  0  0  0  0  0  0  0  0  0  0
    2.4536    1.6227    1.1387 S   0  0  0  0  0  0  0  0  0  0  0  0
    3.6276   -0.9497    0.1560 O   0  0  0  0  0  0  0  0  0  0  0  0
    4.4717   -1.0891    1.3115 C   0  0  0  0  0  0  0  0  0  0  0  0
    3.7654   -1.7645    2.4692 C   0  0  0  0  0  0  0  0  0  0  0  0
    0.7793   -1.4261    0.7616 S   0  0  0  0  0  0  0  0  0  0  0  0
   -0.0003   -0.4475    2.0807 C   0  0  0  0  0  0  0  0  0  0  0  0
   -1.8104   -0.4229    1.9756 S   0  0  0  0  0  0  0  0  0  0  0  0
   -2.0398    0.2507   -0.0041 P   0  0  0  0  0  0  0  0  0  0  0  0
   -0.7409    1.5593   -0.6984 S   0  0  0  0  0  0  0  0  0  0  0  0
   -3.5481    0.7459   -0.0320 O   0  0  0  0  0  0  0  0  0  0  0  0
   -3.9397    2.0294    0.4935 C   0  0  0  0  0  0  0  0  0  0  0  0
   -5.2958    2.3762   -0.0874 C   0  0  0  0  0  0  0  0  0  0  0  0
   -2.1318   -1.1248   -0.7745 O   0  0  0  0  0  0  0  0  0  0  0  0
   -1.9271   -1.2325   -2.1980 C   0  0  0  0  0  0  0  0  0  0  0  0
   -3.0761   -0.6267   -2.9752 C   0  0  0  0  0  0  0  0  0  0  0  0
    0.8761    0.1580   -3.6917 H   0  0  0  0  0  0  0  0  0  0  0  0
    2.6037    0.2664   -4.0157 H   0  0  0  0  0  0  0  0  0  0  0  0
    1.7229   -1.2179   -4.4253 H   0  0  0  0  0  0  0  0  0  0  0  0
    3.0785   -1.4548   -2.3010 H   0  0  0  0  0  0  0  0  0  0  0  0
    1.3342   -1.6856   -2.0182 H   0  0  0  0  0  0  0  0  0  0  0  0
    5.3100   -1.6849    0.9473 H   0  0  0  0  0  0  0  0  0  0  0  0
    4.8200   -0.0938    1.6036 H   0  0  0  0  0  0  0  0  0  0  0  0
    4.4838   -1.9635    3.2579 H   0  0  0  0  0  0  0  0  0  0  0  0
    2.9885   -1.1083    2.8593 H   0  0  0  0  0  0  0  0  0  0  0  0
    3.3141   -2.6993    2.1462 H   0  0  0  0  0  0  0  0  0  0  0  0
    0.3921    0.5726    2.0286 H   0  0  0  0  0  0  0  0  0  0  0  0
    0.2254   -0.9060    3.0406 H   0  0  0  0  0  0  0  0  0  0  0  0
   -3.9798    1.9542    1.5835 H   0  0  0  0  0  0  0  0  0  0  0  0
   -3.1804    2.7680    0.2138 H   0  0  0  0  0  0  0  0  0  0  0  0
   -5.6257    3.3255    0.3216 H   0  0  0  0  0  0  0  0  0  0  0  0
   -5.2326    2.4548   -1.1690 H   0  0  0  0  0  0  0  0  0  0  0  0
   -6.0144    1.6033    0.1686 H   0  0  0  0  0  0  0  0  0  0  0  0
   -0.9865   -0.7325   -2.4498 H   0  0  0  0  0  0  0  0  0  0  0  0
   -1.8379   -2.3062   -2.3683 H   0  0  0  0  0  0  0  0  0  0  0  0
   -3.1084    0.4486   -2.8042 H   0  0  0  0  0  0  0  0  0  0  0  0
   -2.9340   -0.8139   -4.0350 H   0  0  0  0  0  0  0  0  0  0  0  0
   -4.0175   -1.0618   -2.6511 H   0  0  0  0  0  0  0  0  0  0  0  0
  1  2  1  0  0  0  0
  2  3  1  0  0  0  0
  3  4  2  0  0  0  0
  4  5  2  0  0  0  0
  4  6  2  0  0  0  0
  6  7  1  0  0  0  0
  7  8  1  0  0  0  0
  4  9  1  0  0  0  0
  9 10  1  0  0  0  0
 10 11  1  0  0  0  0
 11 12  1  0  0  0  0
 12 13  2  0  0  0  0
 12 14  2  0  0  0  0
 14 15  1  0  0  0  0
 15 16  1  0  0  0  0
 12 17  2  0  0  0  0
 17 18  1  0  0  0  0
 18 19  1  0  0  0  0
  1 20  1  0  0  0  0
  1 21  1  0  0  0  0
  1 22  1  0  0  0  0
  2 23  1  0  0  0  0
  2 24  1  0  0  0  0
  7 25  1  0  0  0  0
  7 26  1  0  0  0  0
  8 27  1  0  0  0  0
  8 28  1  0  0  0  0
  8 29  1  0  0  0  0
 10 30  1  0  0  0  0
 10 31  1  0  0  0  0
 15 32  1  0  0  0  0
 15 33  1  0  0  0  0
 16 34  1  0  0  0  0
 16 35  1  0  0  0  0
 16 36  1  0  0  0  0
 18 37  1  0  0  0  0
 18 38  1  0  0  0  0
 19 39  1  0  0  0  0
 19 40  1  0  0  0  0
 19 41  1  0  0  0  0
M  END
