 xtb: 6.7.1 (edcfbbe)
          04092505203D

 41 40  0     0  0            999 V2000
    2.7388   -2.5819   -2.3189 C   0  0  0  0  0  0  0  0  0  0  0  0
    3.1845   -2.3747   -0.8857 C   0  0  0  0  0  0  0  0  0  0  0  0
    3.4247   -0.9732   -0.6024 O   0  0  0  0  0  0  0  0  0  0  0  0
    2.3513    0.0330   -0.0268 P   0  0  0  0  0  0  0  0  0  0  0  0
    3.1626    1.6917    0.6053 S   0  0  0  0  0  0  0  0  0  0  0  0
    1.5593   -0.8270    1.0609 O   0  0  0  0  0  0  0  0  0  0  0  0
    1.3662   -0.4201    2.4267 C   0  0  0  0  0  0  0  0  0  0  0  0
    2.4486   -1.0121    3.3066 C   0  0  0  0  0  0  0  0  0  0  0  0
    0.9452    0.2458   -1.6112 S   0  0  0  0  0  0  0  0  0  0  0  0
    0.2085    1.8006   -1.0533 C   0  0  0  0  0  0  0  0  0  0  0  0
   -0.6407    1.6630    0.5434 S   0  0  0  0  0  0  0  0  0  0  0  0
   -2.0602    0.2159   -0.0648 P   0  0  0  0  0  0  0  0  0  0  0  0
   -2.7789    0.3730   -1.8848 S   0  0  0  0  0  0  0  0  0  0  0  0
   -3.1435    0.2243    1.0968 O   0  0  0  0  0  0  0  0  0  0  0  0
   -4.3083    1.0671    1.0637 C   0  0  0  0  0  0  0  0  0  0  0  0
   -3.9576    2.5327    1.2208 C   0  0  0  0  0  0  0  0  0  0  0  0
   -1.2589   -1.1069    0.2763 O   0  0  0  0  0  0  0  0  0  0  0  0
   -1.5077   -2.3550   -0.4002 C   0  0  0  0  0  0  0  0  0  0  0  0
   -2.8496   -2.9406   -0.0143 C   0  0  0  0  0  0  0  0  0  0  0  0
    3.4599   -2.1404   -3.0012 H   0  0  0  0  0  0  0  0  0  0  0  0
    2.6641   -3.6468   -2.5162 H   0  0  0  0  0  0  0  0  0  0  0  0
    1.7694   -2.1187   -2.4928 H   0  0  0  0  0  0  0  0  0  0  0  0
    4.1517   -2.8454   -0.7014 H   0  0  0  0  0  0  0  0  0  0  0  0
    2.4451   -2.7550   -0.1783 H   0  0  0  0  0  0  0  0  0  0  0  0
    1.3787    0.6729    2.4829 H   0  0  0  0  0  0  0  0  0  0  0  0
    0.3729   -0.7878    2.6914 H   0  0  0  0  0  0  0  0  0  0  0  0
    2.4551   -2.0955    3.2251 H   0  0  0  0  0  0  0  0  0  0  0  0
    3.4201   -0.6271    3.0005 H   0  0  0  0  0  0  0  0  0  0  0  0
    2.2649   -0.7292    4.3380 H   0  0  0  0  0  0  0  0  0  0  0  0
   -0.5034    2.0953   -1.8236 H   0  0  0  0  0  0  0  0  0  0  0  0
    0.9899    2.5489   -0.9230 H   0  0  0  0  0  0  0  0  0  0  0  0
   -4.8310    0.8970    0.1170 H   0  0  0  0  0  0  0  0  0  0  0  0
   -4.9160    0.7067    1.8948 H   0  0  0  0  0  0  0  0  0  0  0  0
   -4.8701    3.1133    1.3111 H   0  0  0  0  0  0  0  0  0  0  0  0
   -3.3441    2.6825    2.1057 H   0  0  0  0  0  0  0  0  0  0  0  0
   -3.4038    2.8796    0.3493 H   0  0  0  0  0  0  0  0  0  0  0  0
   -1.4544   -2.1811   -1.4799 H   0  0  0  0  0  0  0  0  0  0  0  0
   -0.6795   -2.9925   -0.0874 H   0  0  0  0  0  0  0  0  0  0  0  0
   -2.9622   -3.9179   -0.4730 H   0  0  0  0  0  0  0  0  0  0  0  0
   -2.9234   -3.0346    1.0659 H   0  0  0  0  0  0  0  0  0  0  0  0
   -3.6495   -2.2900   -0.3663 H   0  0  0  0  0  0  0  0  0  0  0  0
  1  2  1  0  0  0  0
  2  3  1  0  0  0  0
  3  4  2  0  0  0  0
  4  5  2  0  0  0  0
  4  6  2  0  0  0  0
  6  7  1  0  0  0  0
  7  8  1  0  0  0  0
  4  9  1  0  0  0  0
  9 10  1  0  0  0  0
 10 11  1  0  0  0  0
 11 12  1  0  0  0  0
 12 13  2  0  0  0  0
 12 14  2  0  0  0  0
 14 15  1  0  0  0  0
 15 16  1  0  0  0  0
 12 17  2  0  0  0  0
 17 18  1  0  0  0  0
 18 19  1  0  0  0  0
  1 20  1  0  0  0  0
  1 21  1  0  0  0  0
  1 22  1  0  0  0  0
  2 23  1  0  0  0  0
  2 24  1  0  0  0  0
  7 25  1  0  0  0  0
  7 26  1  0  0  0  0
  8 27  1  0  0  0  0
  8 28  1  0  0  0  0
  8 29  1  0  0  0  0
 10 30  1  0  0  0  0
 10 31  1  0  0  0  0
 15 32  1  0  0  0  0
 15 33  1  0  0  0  0
 16 34  1  0  0  0  0
 16 35  1  0  0  0  0
 16 36  1  0  0  0  0
 18 37  1  0  0  0  0
 18 38  1  0  0  0  0
 19 39  1  0  0  0  0
 19 40  1  0  0  0  0
 19 41  1  0  0  0  0
M  END
