 xtb: 6.7.1 (edcfbbe)
          04092507313D

 38 37  0     0  0            999 V2000
    1.7370   -3.6578    0.3108 C   0  0  0  0  0  0  0  0  0  0  0  0
    2.6606   -2.4538    0.3604 C   0  0  0  0  0  0  0  0  0  0  0  0
    2.4124   -1.6325   -0.7961 O   0  0  0  0  0  0  0  0  0  0  0  0
    2.1559   -0.3543   -0.6512 C   0  0  0  0  0  0  0  0  0  0  0  0
    2.1489    0.2503    0.4020 O   0  0  0  0  0  0  0  0  0  0  0  0
    1.8303    0.3157   -1.9727 C   0  0  0  0  0  0  0  0  0  0  0  0
    0.4419    0.9497   -1.8631 C   0  0  0  0  0  0  0  0  0  0  0  0
    0.2382    1.5565   -2.7486 H   0  0  0  0  0  0  0  0  0  0  0  0
    0.3250    1.8235   -0.6304 C   0  0  0  0  0  0  0  0  0  0  0  0
   -0.5199    1.6164    0.2284 O   0  0  0  0  0  0  0  0  0  0  0  0
    1.1438    2.8270   -0.6494 O   0  0  0  0  0  0  0  0  0  0  0  0
    1.1657    3.7495    0.4656 C   0  0  0  0  0  0  0  0  0  0  0  0
    2.2546    3.3633    1.4510 C   0  0  0  0  0  0  0  0  0  0  0  0
   -0.8786   -0.3154   -1.8071 S   0  0  0  0  0  0  0  0  0  0  0  0
   -1.4913   -0.5127    0.2137 P   0  0  0  0  0  0  0  0  0  0  0  0
   -0.4406   -0.8361    1.8499 S   0  0  0  0  0  0  0  0  0  0  0  0
   -2.8414    0.3211    0.4506 O   0  0  0  0  0  0  0  0  0  0  0  0
   -3.0064    1.3877    1.3816 C   0  0  0  0  0  0  0  0  0  0  0  0
   -2.1732   -1.9009   -0.2629 O   0  0  0  0  0  0  0  0  0  0  0  0
   -2.9267   -2.7181    0.6315 C   0  0  0  0  0  0  0  0  0  0  0  0
    1.8704   -4.1927   -0.6246 H   0  0  0  0  0  0  0  0  0  0  0  0
    1.9600   -4.3155    1.1440 H   0  0  0  0  0  0  0  0  0  0  0  0
    0.7005   -3.3344    0.3881 H   0  0  0  0  0  0  0  0  0  0  0  0
    3.7093   -2.7551    0.3083 H   0  0  0  0  0  0  0  0  0  0  0  0
    2.4871   -1.8566    1.2608 H   0  0  0  0  0  0  0  0  0  0  0  0
    1.8460   -0.4185   -2.7753 H   0  0  0  0  0  0  0  0  0  0  0  0
    2.5654    1.1013   -2.1550 H   0  0  0  0  0  0  0  0  0  0  0  0
    1.3647    4.7192    0.0081 H   0  0  0  0  0  0  0  0  0  0  0  0
    0.1842    3.7429    0.9458 H   0  0  0  0  0  0  0  0  0  0  0  0
    2.2393    4.0500    2.2906 H   0  0  0  0  0  0  0  0  0  0  0  0
    2.0865    2.3510    1.8135 H   0  0  0  0  0  0  0  0  0  0  0  0
    3.2281    3.3992    0.9715 H   0  0  0  0  0  0  0  0  0  0  0  0
   -2.2651    1.3097    2.1789 H   0  0  0  0  0  0  0  0  0  0  0  0
   -4.0114    1.2833    1.7855 H   0  0  0  0  0  0  0  0  0  0  0  0
   -2.8954    2.3397    0.8658 H   0  0  0  0  0  0  0  0  0  0  0  0
   -2.4073   -2.8036    1.5892 H   0  0  0  0  0  0  0  0  0  0  0  0
   -3.0028   -3.6909    0.1518 H   0  0  0  0  0  0  0  0  0  0  0  0
   -3.9157   -2.2876    0.7858 H   0  0  0  0  0  0  0  0  0  0  0  0
  1  2  1  0  0  0  0
  2  3  1  0  0  0  0
  3  4  4  0  0  0  0
  4  5  2  0  0  0  0
  4  6  1  0  0  0  0
  6  7  1  0  0  0  0
  7  8  1  0  0  0  0
  7  9  1  0  0  0  0
  9 10  2  0  0  0  0
  9 11  4  0  0  0  0
 11 12  1  0  0  0  0
 12 13  1  0  0  0  0
  7 14  1  0  0  0  0
 14 15  1  0  0  0  0
 15 16  2  0  0  0  0
 15 17  1  0  0  0  0
 17 18  1  0  0  0  0
 15 19  1  0  0  0  0
 19 20  1  0  0  0  0
  1 21  1  0  0  0  0
  1 22  1  0  0  0  0
  1 23  1  0  0  0  0
  2 24  1  0  0  0  0
  2 25  1  0  0  0  0
  6 26  1  0  0  0  0
  6 27  1  0  0  0  0
 12 28  1  0  0  0  0
 12 29  1  0  0  0  0
 13 30  1  0  0  0  0
 13 31  1  0  0  0  0
 13 32  1  0  0  0  0
 18 33  1  0  0  0  0
 18 34  1  0  0  0  0
 18 35  1  0  0  0  0
 20 36  1  0  0  0  0
 20 37  1  0  0  0  0
 20 38  1  0  0  0  0
M  END
