 xtb: 6.7.1 (edcfbbe)
          04092507313D

 38 37  0     0  0            999 V2000
    3.1228   -4.5214   -1.1392 C   0  0  0  0  0  0  0  0  0  0  0  0
    3.8975   -3.2810   -1.5549 C   0  0  0  0  0  0  0  0  0  0  0  0
    3.5721   -2.1672   -0.7010 O   0  0  0  0  0  0  0  0  0  0  0  0
    2.5303   -1.4216   -1.0121 C   0  0  0  0  0  0  0  0  0  0  0  0
    1.8360   -1.5780   -1.9911 O   0  0  0  0  0  0  0  0  0  0  0  0
    2.3285   -0.3173    0.0096 C   0  0  0  0  0  0  0  0  0  0  0  0
    0.8973    0.1912   -0.0438 C   0  0  0  0  0  0  0  0  0  0  0  0
    0.6174    0.3794   -1.0890 H   0  0  0  0  0  0  0  0  0  0  0  0
    0.6531    1.4696    0.7286 C   0  0  0  0  0  0  0  0  0  0  0  0
   -0.3654    1.6445    1.3701 O   0  0  0  0  0  0  0  0  0  0  0  0
    1.6194    2.3328    0.6005 O   0  0  0  0  0  0  0  0  0  0  0  0
    1.4446    3.6487    1.1738 C   0  0  0  0  0  0  0  0  0  0  0  0
    0.7071    4.5542    0.2016 C   0  0  0  0  0  0  0  0  0  0  0  0
   -0.2646   -1.0693    0.6014 S   0  0  0  0  0  0  0  0  0  0  0  0
   -2.0679    0.0056    0.3091 P   0  0  0  0  0  0  0  0  0  0  0  0
   -2.1213    1.4079   -1.0704 S   0  0  0  0  0  0  0  0  0  0  0  0
   -3.0442   -1.2160   -0.0519 O   0  0  0  0  0  0  0  0  0  0  0  0
   -2.9094   -1.9199   -1.2877 C   0  0  0  0  0  0  0  0  0  0  0  0
   -2.7620    0.2826    1.7053 O   0  0  0  0  0  0  0  0  0  0  0  0
   -3.0070    1.5715    2.2733 C   0  0  0  0  0  0  0  0  0  0  0  0
    2.0552   -4.3521   -1.2608 H   0  0  0  0  0  0  0  0  0  0  0  0
    3.4209   -5.3581   -1.7623 H   0  0  0  0  0  0  0  0  0  0  0  0
    3.3251   -4.7580   -0.0983 H   0  0  0  0  0  0  0  0  0  0  0  0
    3.6667   -3.0085   -2.5886 H   0  0  0  0  0  0  0  0  0  0  0  0
    4.9711   -3.4199   -1.4272 H   0  0  0  0  0  0  0  0  0  0  0  0
    3.0086    0.5025   -0.2325 H   0  0  0  0  0  0  0  0  0  0  0  0
    2.5785   -0.7019    0.9978 H   0  0  0  0  0  0  0  0  0  0  0  0
    0.8938    3.5511    2.1125 H   0  0  0  0  0  0  0  0  0  0  0  0
    2.4598    3.9994    1.3574 H   0  0  0  0  0  0  0  0  0  0  0  0
    0.5933    5.5391    0.6415 H   0  0  0  0  0  0  0  0  0  0  0  0
    1.2608    4.6378   -0.7293 H   0  0  0  0  0  0  0  0  0  0  0  0
   -0.2793    4.1488   -0.0176 H   0  0  0  0  0  0  0  0  0  0  0  0
   -1.9602   -2.4574   -1.3200 H   0  0  0  0  0  0  0  0  0  0  0  0
   -2.9631   -1.2210   -2.1250 H   0  0  0  0  0  0  0  0  0  0  0  0
   -3.7430   -2.6163   -1.3201 H   0  0  0  0  0  0  0  0  0  0  0  0
   -3.9960    1.5182    2.7233 H   0  0  0  0  0  0  0  0  0  0  0  0
   -2.9818    2.3406    1.4996 H   0  0  0  0  0  0  0  0  0  0  0  0
   -2.2471    1.7802    3.0235 H   0  0  0  0  0  0  0  0  0  0  0  0
  1  2  1  0  0  0  0
  2  3  1  0  0  0  0
  3  4  1  0  0  0  0
  4  5  2  0  0  0  0
  4  6  1  0  0  0  0
  6  7  1  0  0  0  0
  7  8  1  0  0  0  0
  7  9  1  0  0  0  0
  9 10  2  0  0  0  0
  9 11  4  0  0  0  0
 11 12  1  0  0  0  0
 12 13  1  0  0  0  0
  7 14  1  0  0  0  0
 14 15  1  0  0  0  0
 15 16  2  0  0  0  0
 15 17  1  0  0  0  0
 17 18  1  0  0  0  0
 15 19  2  0  0  0  0
 19 20  1  0  0  0  0
  1 21  1  0  0  0  0
  1 22  1  0  0  0  0
  1 23  1  0  0  0  0
  2 24  1  0  0  0  0
  2 25  1  0  0  0  0
  6 26  1  0  0  0  0
  6 27  1  0  0  0  0
 12 28  1  0  0  0  0
 12 29  1  0  0  0  0
 13 30  1  0  0  0  0
 13 31  1  0  0  0  0
 13 32  1  0  0  0  0
 18 33  1  0  0  0  0
 18 34  1  0  0  0  0
 18 35  1  0  0  0  0
 20 36  1  0  0  0  0
 20 37  1  0  0  0  0
 20 38  1  0  0  0  0
M  END
