 xtb: 6.7.1 (edcfbbe)
          04092507313D

 38 37  0     0  0            999 V2000
    3.6316   -2.9358    0.3361 C   0  0  0  0  0  0  0  0  0  0  0  0
    3.0213   -1.6316    0.8231 C   0  0  0  0  0  0  0  0  0  0  0  0
    2.7000   -0.7650   -0.2823 O   0  0  0  0  0  0  0  0  0  0  0  0
    1.5865   -0.9731   -0.9485 C   0  0  0  0  0  0  0  0  0  0  0  0
    0.7724   -1.8382   -0.6929 O   0  0  0  0  0  0  0  0  0  0  0  0
    1.4128    0.0138   -2.0852 C   0  0  0  0  0  0  0  0  0  0  0  0
    0.2158    0.9318   -1.8208 C   0  0  0  0  0  0  0  0  0  0  0  0
    0.0646    1.5838   -2.6864 H   0  0  0  0  0  0  0  0  0  0  0  0
    0.4054    1.8021   -0.5925 C   0  0  0  0  0  0  0  0  0  0  0  0
   -0.4780    1.9657    0.2280 O   0  0  0  0  0  0  0  0  0  0  0  0
    1.5894    2.3434   -0.5503 O   0  0  0  0  0  0  0  0  0  0  0  0
    1.9552    3.1346    0.6016 C   0  0  0  0  0  0  0  0  0  0  0  0
    2.6223    2.2553    1.6457 C   0  0  0  0  0  0  0  0  0  0  0  0
   -1.3604    0.0273   -1.6490 S   0  0  0  0  0  0  0  0  0  0  0  0
   -1.6698   -0.2412    0.4474 P   0  0  0  0  0  0  0  0  0  0  0  0
   -0.3109   -0.4310    1.8478 S   0  0  0  0  0  0  0  0  0  0  0  0
   -2.7854    0.7893    0.8994 O   0  0  0  0  0  0  0  0  0  0  0  0
   -3.9978    1.0203    0.1623 C   0  0  0  0  0  0  0  0  0  0  0  0
   -2.6103   -1.5457    0.3488 O   0  0  0  0  0  0  0  0  0  0  0  0
   -2.1595   -2.8723    0.0521 C   0  0  0  0  0  0  0  0  0  0  0  0
    3.9235   -3.5323    1.1939 H   0  0  0  0  0  0  0  0  0  0  0  0
    2.9050   -3.4945   -0.2493 H   0  0  0  0  0  0  0  0  0  0  0  0
    4.5056   -2.7345   -0.2772 H   0  0  0  0  0  0  0  0  0  0  0  0
    3.7307   -1.0570    1.4181 H   0  0  0  0  0  0  0  0  0  0  0  0
    2.1108   -1.8102    1.4029 H   0  0  0  0  0  0  0  0  0  0  0  0
    1.2206   -0.5488   -2.9993 H   0  0  0  0  0  0  0  0  0  0  0  0
    2.3159    0.6148   -2.1823 H   0  0  0  0  0  0  0  0  0  0  0  0
    2.6436    3.8824    0.2079 H   0  0  0  0  0  0  0  0  0  0  0  0
    1.0563    3.6083    1.0042 H   0  0  0  0  0  0  0  0  0  0  0  0
    3.4847    1.7550    1.2145 H   0  0  0  0  0  0  0  0  0  0  0  0
    2.9398    2.8679    2.4826 H   0  0  0  0  0  0  0  0  0  0  0  0
    1.9231    1.5017    2.0069 H   0  0  0  0  0  0  0  0  0  0  0  0
   -4.5894    0.1070    0.1236 H   0  0  0  0  0  0  0  0  0  0  0  0
   -3.7638    1.3587   -0.8472 H   0  0  0  0  0  0  0  0  0  0  0  0
   -4.5184    1.7968    0.7168 H   0  0  0  0  0  0  0  0  0  0  0  0
   -1.1231   -2.8714   -0.2787 H   0  0  0  0  0  0  0  0  0  0  0  0
   -2.8063   -3.2564   -0.7343 H   0  0  0  0  0  0  0  0  0  0  0  0
   -2.2555   -3.4704    0.9570 H   0  0  0  0  0  0  0  0  0  0  0  0
  1  2  1  0  0  0  0
  2  3  1  0  0  0  0
  3  4  4  0  0  0  0
  4  5  2  0  0  0  0
  4  6  1  0  0  0  0
  6  7  1  0  0  0  0
  7  8  1  0  0  0  0
  7  9  1  0  0  0  0
  9 10  2  0  0  0  0
  9 11  4  0  0  0  0
 11 12  1  0  0  0  0
 12 13  1  0  0  0  0
  7 14  1  0  0  0  0
 14 15  1  0  0  0  0
 15 16  2  0  0  0  0
 15 17  2  0  0  0  0
 17 18  1  0  0  0  0
 15 19  1  0  0  0  0
 19 20  1  0  0  0  0
  1 21  1  0  0  0  0
  1 22  1  0  0  0  0
  1 23  1  0  0  0  0
  2 24  1  0  0  0  0
  2 25  1  0  0  0  0
  6 26  1  0  0  0  0
  6 27  1  0  0  0  0
 12 28  1  0  0  0  0
 12 29  1  0  0  0  0
 13 30  1  0  0  0  0
 13 31  1  0  0  0  0
 13 32  1  0  0  0  0
 18 33  1  0  0  0  0
 18 34  1  0  0  0  0
 18 35  1  0  0  0  0
 20 36  1  0  0  0  0
 20 37  1  0  0  0  0
 20 38  1  0  0  0  0
M  END
