 xtb: 6.7.1 (edcfbbe)
          04092505203D

 41 40  0     0  0            999 V2000
    5.3026   -2.0466   -1.4241 C   0  0  0  0  0  0  0  0  0  0  0  0
    4.2811   -0.9276   -1.4522 C   0  0  0  0  0  0  0  0  0  0  0  0
    3.2209   -1.2723   -0.5378 O   0  0  0  0  0  0  0  0  0  0  0  0
    2.2162   -0.1787    0.0220 P   0  0  0  0  0  0  0  0  0  0  0  0
    3.0529    1.4594    0.7090 S   0  0  0  0  0  0  0  0  0  0  0  0
    1.3621   -1.0212    1.0522 O   0  0  0  0  0  0  0  0  0  0  0  0
    1.6861   -1.0432    2.4611 C   0  0  0  0  0  0  0  0  0  0  0  0
    2.9887   -1.7689    2.7206 C   0  0  0  0  0  0  0  0  0  0  0  0
    0.8435    0.0740   -1.5678 S   0  0  0  0  0  0  0  0  0  0  0  0
    0.1177    1.6188   -0.9515 C   0  0  0  0  0  0  0  0  0  0  0  0
   -0.8533    1.3869    0.5508 S   0  0  0  0  0  0  0  0  0  0  0  0
   -2.4336    0.2770   -0.3749 P   0  0  0  0  0  0  0  0  0  0  0  0
   -2.8618    0.7852   -2.2130 S   0  0  0  0  0  0  0  0  0  0  0  0
   -3.5806    0.3334    0.7223 O   0  0  0  0  0  0  0  0  0  0  0  0
   -4.0689    1.5323    1.3547 C   0  0  0  0  0  0  0  0  0  0  0  0
   -4.5225    2.5788    0.3593 C   0  0  0  0  0  0  0  0  0  0  0  0
   -2.0175   -1.2423   -0.3315 O   0  0  0  0  0  0  0  0  0  0  0  0
   -1.7515   -1.9675    0.8924 C   0  0  0  0  0  0  0  0  0  0  0  0
   -2.9379   -2.8356    1.2573 C   0  0  0  0  0  0  0  0  0  0  0  0
    5.7267   -2.1432   -0.4288 H   0  0  0  0  0  0  0  0  0  0  0  0
    4.8303   -2.9851   -1.6991 H   0  0  0  0  0  0  0  0  0  0  0  0
    6.0950   -1.8220   -2.1305 H   0  0  0  0  0  0  0  0  0  0  0  0
    3.8472   -0.8067   -2.4486 H   0  0  0  0  0  0  0  0  0  0  0  0
    4.7190    0.0252   -1.1353 H   0  0  0  0  0  0  0  0  0  0  0  0
    1.7371   -0.0103    2.8198 H   0  0  0  0  0  0  0  0  0  0  0  0
    0.8383   -1.5547    2.9182 H   0  0  0  0  0  0  0  0  0  0  0  0
    3.8133   -1.2148    2.2736 H   0  0  0  0  0  0  0  0  0  0  0  0
    3.1533   -1.8437    3.7909 H   0  0  0  0  0  0  0  0  0  0  0  0
    2.9580   -2.7644    2.2861 H   0  0  0  0  0  0  0  0  0  0  0  0
   -0.5280    1.9943   -1.7459 H   0  0  0  0  0  0  0  0  0  0  0  0
    0.9127    2.3241   -0.7092 H   0  0  0  0  0  0  0  0  0  0  0  0
   -4.9002    1.1782    1.9668 H   0  0  0  0  0  0  0  0  0  0  0  0
   -3.2754    1.9267    1.9956 H   0  0  0  0  0  0  0  0  0  0  0  0
   -3.6752    2.9350   -0.2250 H   0  0  0  0  0  0  0  0  0  0  0  0
   -5.2568    2.1597   -0.3245 H   0  0  0  0  0  0  0  0  0  0  0  0
   -4.9621    3.4162    0.8915 H   0  0  0  0  0  0  0  0  0  0  0  0
   -0.8648   -2.5663    0.6736 H   0  0  0  0  0  0  0  0  0  0  0  0
   -1.5231   -1.2510    1.6867 H   0  0  0  0  0  0  0  0  0  0  0  0
   -3.1663   -3.5131    0.4393 H   0  0  0  0  0  0  0  0  0  0  0  0
   -2.6998   -3.4117    2.1459 H   0  0  0  0  0  0  0  0  0  0  0  0
   -3.8094   -2.2157    1.4509 H   0  0  0  0  0  0  0  0  0  0  0  0
  1  2  1  0  0  0  0
  2  3  1  0  0  0  0
  3  4  2  0  0  0  0
  4  5  2  0  0  0  0
  4  6  2  0  0  0  0
  6  7  1  0  0  0  0
  7  8  1  0  0  0  0
  4  9  1  0  0  0  0
  9 10  1  0  0  0  0
 10 11  1  0  0  0  0
 11 12  1  0  0  0  0
 12 13  2  0  0  0  0
 12 14  2  0  0  0  0
 14 15  1  0  0  0  0
 15 16  1  0  0  0  0
 12 17  2  0  0  0  0
 17 18  1  0  0  0  0
 18 19  1  0  0  0  0
  1 20  1  0  0  0  0
  1 21  1  0  0  0  0
  1 22  1  0  0  0  0
  2 23  1  0  0  0  0
  2 24  1  0  0  0  0
  7 25  1  0  0  0  0
  7 26  1  0  0  0  0
  8 27  1  0  0  0  0
  8 28  1  0  0  0  0
  8 29  1  0  0  0  0
 10 30  1  0  0  0  0
 10 31  1  0  0  0  0
 15 32  1  0  0  0  0
 15 33  1  0  0  0  0
 16 34  1  0  0  0  0
 16 35  1  0  0  0  0
 16 36  1  0  0  0  0
 18 37  1  0  0  0  0
 18 38  1  0  0  0  0
 19 39  1  0  0  0  0
 19 40  1  0  0  0  0
 19 41  1  0  0  0  0
M  END
