 xtb: 6.7.1 (edcfbbe)
          04092505213D

 41 40  0     0  0            999 V2000
    5.3565   -0.1146    1.4428 C   0  0  0  0  0  0  0  0  0  0  0  0
    3.8985   -0.4580    1.2184 C   0  0  0  0  0  0  0  0  0  0  0  0
    3.5473   -0.0400   -0.1249 O   0  0  0  0  0  0  0  0  0  0  0  0
    2.0388    0.1665   -0.5744 P   0  0  0  0  0  0  0  0  0  0  0  0
    1.9512    0.7170   -2.4449 S   0  0  0  0  0  0  0  0  0  0  0  0
    1.3828    1.1487    0.5066 O   0  0  0  0  0  0  0  0  0  0  0  0
    1.3940    2.5757    0.3284 C   0  0  0  0  0  0  0  0  0  0  0  0
    2.7855    3.1512    0.4909 C   0  0  0  0  0  0  0  0  0  0  0  0
    1.1533   -1.6646   -0.0329 S   0  0  0  0  0  0  0  0  0  0  0  0
   -0.1218   -1.8106   -1.3299 C   0  0  0  0  0  0  0  0  0  0  0  0
   -1.7818   -1.9727   -0.6505 S   0  0  0  0  0  0  0  0  0  0  0  0
   -1.9674    0.0080    0.1142 P   0  0  0  0  0  0  0  0  0  0  0  0
   -1.4600    1.3816   -1.1901 S   0  0  0  0  0  0  0  0  0  0  0  0
   -1.1612    0.1400    1.4571 O   0  0  0  0  0  0  0  0  0  0  0  0
   -1.5462   -0.4040    2.7474 C   0  0  0  0  0  0  0  0  0  0  0  0
   -1.5697   -1.9177    2.7616 C   0  0  0  0  0  0  0  0  0  0  0  0
   -3.4731    0.0541    0.6083 O   0  0  0  0  0  0  0  0  0  0  0  0
   -4.5660    0.0451   -0.3342 C   0  0  0  0  0  0  0  0  0  0  0  0
   -5.8237    0.4410    0.4118 C   0  0  0  0  0  0  0  0  0  0  0  0
    5.5087    0.9585    1.3664 H   0  0  0  0  0  0  0  0  0  0  0  0
    5.6533   -0.4515    2.4307 H   0  0  0  0  0  0  0  0  0  0  0  0
    5.9703   -0.6067    0.6941 H   0  0  0  0  0  0  0  0  0  0  0  0
    3.2468    0.0571    1.9292 H   0  0  0  0  0  0  0  0  0  0  0  0
    3.7251   -1.5350    1.2873 H   0  0  0  0  0  0  0  0  0  0  0  0
    0.9893    2.8055   -0.6631 H   0  0  0  0  0  0  0  0  0  0  0  0
    0.7032    2.9415    1.0900 H   0  0  0  0  0  0  0  0  0  0  0  0
    3.1883    2.9012    1.4692 H   0  0  0  0  0  0  0  0  0  0  0  0
    3.4409    2.7484   -0.2815 H   0  0  0  0  0  0  0  0  0  0  0  0
    2.7393    4.2306    0.3853 H   0  0  0  0  0  0  0  0  0  0  0  0
    0.0707   -2.7228   -1.8887 H   0  0  0  0  0  0  0  0  0  0  0  0
   -0.0634   -0.9315   -1.9784 H   0  0  0  0  0  0  0  0  0  0  0  0
   -0.7783   -0.0099    3.4148 H   0  0  0  0  0  0  0  0  0  0  0  0
   -2.5207    0.0092    3.0117 H   0  0  0  0  0  0  0  0  0  0  0  0
   -0.6285   -2.3153    2.3878 H   0  0  0  0  0  0  0  0  0  0  0  0
   -1.7189   -2.2554    3.7825 H   0  0  0  0  0  0  0  0  0  0  0  0
   -2.3811   -2.2942    2.1428 H   0  0  0  0  0  0  0  0  0  0  0  0
   -4.3354    0.7492   -1.1403 H   0  0  0  0  0  0  0  0  0  0  0  0
   -4.6466   -0.9618   -0.7516 H   0  0  0  0  0  0  0  0  0  0  0  0
   -6.6613    0.4350   -0.2778 H   0  0  0  0  0  0  0  0  0  0  0  0
   -6.0159   -0.2620    1.2168 H   0  0  0  0  0  0  0  0  0  0  0  0
   -5.7122    1.4373    0.8303 H   0  0  0  0  0  0  0  0  0  0  0  0
  1  2  1  0  0  0  0
  2  3  1  0  0  0  0
  3  4  2  0  0  0  0
  4  5  2  0  0  0  0
  4  6  1  0  0  0  0
  6  7  1  0  0  0  0
  7  8  1  0  0  0  0
  4  9  1  0  0  0  0
  9 10  1  0  0  0  0
 10 11  1  0  0  0  0
 11 12  1  0  0  0  0
 12 13  2  0  0  0  0
 12 14  2  0  0  0  0
 14 15  1  0  0  0  0
 15 16  1  0  0  0  0
 12 17  2  0  0  0  0
 17 18  1  0  0  0  0
 18 19  1  0  0  0  0
  1 20  1  0  0  0  0
  1 21  1  0  0  0  0
  1 22  1  0  0  0  0
  2 23  1  0  0  0  0
  2 24  1  0  0  0  0
  7 25  1  0  0  0  0
  7 26  1  0  0  0  0
  8 27  1  0  0  0  0
  8 28  1  0  0  0  0
  8 29  1  0  0  0  0
 10 30  1  0  0  0  0
 10 31  1  0  0  0  0
 15 32  1  0  0  0  0
 15 33  1  0  0  0  0
 16 34  1  0  0  0  0
 16 35  1  0  0  0  0
 16 36  1  0  0  0  0
 18 37  1  0  0  0  0
 18 38  1  0  0  0  0
 19 39  1  0  0  0  0
 19 40  1  0  0  0  0
 19 41  1  0  0  0  0
M  END
