 xtb: 6.7.1 (edcfbbe)
          04032520393D

  8  7  0     0  0            999 V2000
   -0.0023   -1.8217    0.1640 C   0  0  0  0  0  0  0  0  0  0  0  0
   -0.0001   -0.4445   -0.4471 C   0  0  0  0  0  0  0  0  0  0  0  0
    1.4500    0.4816    0.0567 Cl  0  0  0  0  0  0  0  0  0  0  0  0
   -1.4490    0.4833    0.0566 Cl  0  0  0  0  0  0  0  0  0  0  0  0
   -0.8896   -2.3572   -0.1626 H   0  0  0  0  0  0  0  0  0  0  0  0
    0.8839   -2.3589   -0.1626 H   0  0  0  0  0  0  0  0  0  0  0  0
   -0.0024   -1.7607    1.2489 H   0  0  0  0  0  0  0  0  0  0  0  0
   -0.0004   -0.4563   -1.5372 H   0  0  0  0  0  0  0  0  0  0  0  0
  1  2  1  0  0  0  0
  2  3  1  0  0  0  0
  2  4  1  0  0  0  0
  1  5  1  0  0  0  0
  1  6  1  0  0  0  0
  1  7  1  0  0  0  0
  2  8  1  0  0  0  0
M  END
