 xtb: 6.7.1 (edcfbbe)
          04092505213D

 41 40  0     0  0            999 V2000
    4.7111   -2.1608   -0.1222 C   0  0  0  0  0  0  0  0  0  0  0  0
    4.5869   -0.6873    0.2092 C   0  0  0  0  0  0  0  0  0  0  0  0
    3.8797   -0.0011   -0.8586 O   0  0  0  0  0  0  0  0  0  0  0  0
    2.4478    0.6281   -0.6830 P   0  0  0  0  0  0  0  0  0  0  0  0
    1.8092    1.3837   -2.3674 S   0  0  0  0  0  0  0  0  0  0  0  0
    2.7125    1.6510    0.5070 O   0  0  0  0  0  0  0  0  0  0  0  0
    1.7578    2.6220    0.9732 C   0  0  0  0  0  0  0  0  0  0  0  0
    1.0783    2.1475    2.2427 C   0  0  0  0  0  0  0  0  0  0  0  0
    1.2653   -0.9187    0.1890 S   0  0  0  0  0  0  0  0  0  0  0  0
    0.2551   -1.3566   -1.2635 C   0  0  0  0  0  0  0  0  0  0  0  0
   -1.3884   -1.9114   -0.7791 S   0  0  0  0  0  0  0  0  0  0  0  0
   -2.0169   -0.1357    0.2302 P   0  0  0  0  0  0  0  0  0  0  0  0
   -1.4340    1.5583   -0.5580 S   0  0  0  0  0  0  0  0  0  0  0  0
   -1.5632   -0.2809    1.7279 O   0  0  0  0  0  0  0  0  0  0  0  0
   -1.9067   -1.4168    2.5643 C   0  0  0  0  0  0  0  0  0  0  0  0
   -3.1094   -1.0960    3.4269 C   0  0  0  0  0  0  0  0  0  0  0  0
   -3.5880   -0.3504    0.3121 O   0  0  0  0  0  0  0  0  0  0  0  0
   -4.4193   -0.2479   -0.8619 C   0  0  0  0  0  0  0  0  0  0  0  0
   -5.8623   -0.1903   -0.4035 C   0  0  0  0  0  0  0  0  0  0  0  0
    5.1633   -2.2825   -1.1024 H   0  0  0  0  0  0  0  0  0  0  0  0
    5.3364   -2.6405    0.6239 H   0  0  0  0  0  0  0  0  0  0  0  0
    3.7323   -2.6338   -0.1231 H   0  0  0  0  0  0  0  0  0  0  0  0
    5.5638   -0.2044    0.2572 H   0  0  0  0  0  0  0  0  0  0  0  0
    4.0543   -0.5332    1.1501 H   0  0  0  0  0  0  0  0  0  0  0  0
    2.3475    3.5227    1.1543 H   0  0  0  0  0  0  0  0  0  0  0  0
    1.0274    2.8225    0.1827 H   0  0  0  0  0  0  0  0  0  0  0  0
    1.8229    1.8698    2.9834 H   0  0  0  0  0  0  0  0  0  0  0  0
    0.4622    2.9519    2.6315 H   0  0  0  0  0  0  0  0  0  0  0  0
    0.4394    1.2906    2.0392 H   0  0  0  0  0  0  0  0  0  0  0  0
    0.7147   -2.1871   -1.7937 H   0  0  0  0  0  0  0  0  0  0  0  0
    0.1788   -0.4722   -1.9034 H   0  0  0  0  0  0  0  0  0  0  0  0
   -2.0942   -2.2834    1.9248 H   0  0  0  0  0  0  0  0  0  0  0  0
   -1.0133   -1.5893    3.1668 H   0  0  0  0  0  0  0  0  0  0  0  0
   -2.9139   -0.2100    4.0244 H   0  0  0  0  0  0  0  0  0  0  0  0
   -3.9808   -0.9132    2.8042 H   0  0  0  0  0  0  0  0  0  0  0  0
   -3.3076   -1.9363    4.0848 H   0  0  0  0  0  0  0  0  0  0  0  0
   -4.1351    0.6549   -1.4126 H   0  0  0  0  0  0  0  0  0  0  0  0
   -4.2336   -1.1231   -1.4905 H   0  0  0  0  0  0  0  0  0  0  0  0
   -6.1113   -1.0887    0.1536 H   0  0  0  0  0  0  0  0  0  0  0  0
   -6.0175    0.6763    0.2330 H   0  0  0  0  0  0  0  0  0  0  0  0
   -6.5083   -0.1161   -1.2721 H   0  0  0  0  0  0  0  0  0  0  0  0
  1  2  1  0  0  0  0
  2  3  1  0  0  0  0
  3  4  2  0  0  0  0
  4  5  2  0  0  0  0
  4  6  2  0  0  0  0
  6  7  1  0  0  0  0
  7  8  1  0  0  0  0
  4  9  1  0  0  0  0
  9 10  1  0  0  0  0
 10 11  1  0  0  0  0
 11 12  1  0  0  0  0
 12 13  2  0  0  0  0
 12 14  2  0  0  0  0
 14 15  1  0  0  0  0
 15 16  1  0  0  0  0
 12 17  2  0  0  0  0
 17 18  1  0  0  0  0
 18 19  1  0  0  0  0
  1 20  1  0  0  0  0
  1 21  1  0  0  0  0
  1 22  1  0  0  0  0
  2 23  1  0  0  0  0
  2 24  1  0  0  0  0
  7 25  1  0  0  0  0
  7 26  1  0  0  0  0
  8 27  1  0  0  0  0
  8 28  1  0  0  0  0
  8 29  1  0  0  0  0
 10 30  1  0  0  0  0
 10 31  1  0  0  0  0
 15 32  1  0  0  0  0
 15 33  1  0  0  0  0
 16 34  1  0  0  0  0
 16 35  1  0  0  0  0
 16 36  1  0  0  0  0
 18 37  1  0  0  0  0
 18 38  1  0  0  0  0
 19 39  1  0  0  0  0
 19 40  1  0  0  0  0
 19 41  1  0  0  0  0
M  END
