 xtb: 6.7.1 (edcfbbe)
          04092505213D

 41 40  0     0  0            999 V2000
    2.8152    0.2154   -3.0486 C   0  0  0  0  0  0  0  0  0  0  0  0
    2.3333   -1.1233   -2.5275 C   0  0  0  0  0  0  0  0  0  0  0  0
    1.5459   -0.9866   -1.3256 O   0  0  0  0  0  0  0  0  0  0  0  0
    2.1293   -0.5779    0.0899 P   0  0  0  0  0  0  0  0  0  0  0  0
    2.8286    1.2316    0.4148 S   0  0  0  0  0  0  0  0  0  0  0  0
    3.2309   -1.7142    0.2750 O   0  0  0  0  0  0  0  0  0  0  0  0
    4.2578   -1.6364    1.2772 C   0  0  0  0  0  0  0  0  0  0  0  0
    3.6959   -1.7759    2.6772 C   0  0  0  0  0  0  0  0  0  0  0  0
    0.5029   -1.1796    1.2870 S   0  0  0  0  0  0  0  0  0  0  0  0
   -0.0493    0.4357    1.9454 C   0  0  0  0  0  0  0  0  0  0  0  0
   -1.8320    0.6587    1.8223 S   0  0  0  0  0  0  0  0  0  0  0  0
   -2.0528    0.9788   -0.2771 P   0  0  0  0  0  0  0  0  0  0  0  0
   -0.4287    1.5745   -1.1964 S   0  0  0  0  0  0  0  0  0  0  0  0
   -3.2142    2.0257   -0.4252 O   0  0  0  0  0  0  0  0  0  0  0  0
   -4.6297    1.7536   -0.2586 C   0  0  0  0  0  0  0  0  0  0  0  0
   -4.9681    1.2581    1.1302 C   0  0  0  0  0  0  0  0  0  0  0  0
   -2.7264   -0.3419   -0.8608 O   0  0  0  0  0  0  0  0  0  0  0  0
   -1.9964   -1.5475   -1.1486 C   0  0  0  0  0  0  0  0  0  0  0  0
   -2.7709   -2.3201   -2.1974 C   0  0  0  0  0  0  0  0  0  0  0  0
    3.5465    0.6496   -2.3691 H   0  0  0  0  0  0  0  0  0  0  0  0
    3.2710    0.0829   -4.0245 H   0  0  0  0  0  0  0  0  0  0  0  0
    1.9766    0.9048   -3.1301 H   0  0  0  0  0  0  0  0  0  0  0  0
    3.1704   -1.7945   -2.3211 H   0  0  0  0  0  0  0  0  0  0  0  0
    1.6428   -1.5942   -3.2296 H   0  0  0  0  0  0  0  0  0  0  0  0
    4.9305   -2.4580    1.0276 H   0  0  0  0  0  0  0  0  0  0  0  0
    4.7767   -0.6789    1.1661 H   0  0  0  0  0  0  0  0  0  0  0  0
    3.0791   -2.6680    2.7504 H   0  0  0  0  0  0  0  0  0  0  0  0
    4.5135   -1.8405    3.3877 H   0  0  0  0  0  0  0  0  0  0  0  0
    3.0877   -0.9049    2.9181 H   0  0  0  0  0  0  0  0  0  0  0  0
    0.4727    1.2265    1.3998 H   0  0  0  0  0  0  0  0  0  0  0  0
    0.1781    0.4735    3.0077 H   0  0  0  0  0  0  0  0  0  0  0  0
   -5.0898    2.7210   -0.4651 H   0  0  0  0  0  0  0  0  0  0  0  0
   -4.9269    1.0289   -1.0182 H   0  0  0  0  0  0  0  0  0  0  0  0
   -6.0461    1.1659    1.2199 H   0  0  0  0  0  0  0  0  0  0  0  0
   -4.5137    0.2851    1.3072 H   0  0  0  0  0  0  0  0  0  0  0  0
   -4.6038    1.9535    1.8820 H   0  0  0  0  0  0  0  0  0  0  0  0
   -0.9957   -1.2804   -1.5051 H   0  0  0  0  0  0  0  0  0  0  0  0
   -1.9006   -2.1191   -0.2208 H   0  0  0  0  0  0  0  0  0  0  0  0
   -2.2485   -3.2464   -2.4129 H   0  0  0  0  0  0  0  0  0  0  0  0
   -3.7675   -2.5465   -1.8301 H   0  0  0  0  0  0  0  0  0  0  0  0
   -2.8539   -1.7340   -3.1086 H   0  0  0  0  0  0  0  0  0  0  0  0
  1  2  1  0  0  0  0
  2  3  1  0  0  0  0
  3  4  2  0  0  0  0
  4  5  2  0  0  0  0
  4  6  2  0  0  0  0
  6  7  1  0  0  0  0
  7  8  1  0  0  0  0
  4  9  1  0  0  0  0
  9 10  1  0  0  0  0
 10 11  1  0  0  0  0
 11 12  1  0  0  0  0
 12 13  2  0  0  0  0
 12 14  2  0  0  0  0
 14 15  1  0  0  0  0
 15 16  1  0  0  0  0
 12 17  2  0  0  0  0
 17 18  1  0  0  0  0
 18 19  1  0  0  0  0
  1 20  1  0  0  0  0
  1 21  1  0  0  0  0
  1 22  1  0  0  0  0
  2 23  1  0  0  0  0
  2 24  1  0  0  0  0
  7 25  1  0  0  0  0
  7 26  1  0  0  0  0
  8 27  1  0  0  0  0
  8 28  1  0  0  0  0
  8 29  1  0  0  0  0
 10 30  1  0  0  0  0
 10 31  1  0  0  0  0
 15 32  1  0  0  0  0
 15 33  1  0  0  0  0
 16 34  1  0  0  0  0
 16 35  1  0  0  0  0
 16 36  1  0  0  0  0
 18 37  1  0  0  0  0
 18 38  1  0  0  0  0
 19 39  1  0  0  0  0
 19 40  1  0  0  0  0
 19 41  1  0  0  0  0
M  END
