 xtb: 6.7.1 (edcfbbe)
          04092505203D

 41 40  0     0  0            999 V2000
    4.0511   -1.9141   -2.0522 C   0  0  0  0  0  0  0  0  0  0  0  0
    4.6102   -1.4782   -0.7132 C   0  0  0  0  0  0  0  0  0  0  0  0
    3.5761   -1.2170    0.2518 O   0  0  0  0  0  0  0  0  0  0  0  0
    2.5740    0.0078    0.1212 P   0  0  0  0  0  0  0  0  0  0  0  0
    3.3787    1.6611   -0.5479 S   0  0  0  0  0  0  0  0  0  0  0  0
    2.0429    0.1873    1.5927 O   0  0  0  0  0  0  0  0  0  0  0  0
    1.1395   -0.6740    2.3275 C   0  0  0  0  0  0  0  0  0  0  0  0
    1.5353   -2.1336    2.2775 C   0  0  0  0  0  0  0  0  0  0  0  0
    0.9444   -0.7577   -1.0333 S   0  0  0  0  0  0  0  0  0  0  0  0
    0.2889    0.8440   -1.5450 C   0  0  0  0  0  0  0  0  0  0  0  0
   -0.4601    1.7659   -0.1697 S   0  0  0  0  0  0  0  0  0  0  0  0
   -2.2824    0.6892   -0.1389 P   0  0  0  0  0  0  0  0  0  0  0  0
   -3.1308    0.3239   -1.8687 S   0  0  0  0  0  0  0  0  0  0  0  0
   -3.0267    1.6734    0.8512 O   0  0  0  0  0  0  0  0  0  0  0  0
   -4.4665    1.7590    0.9105 C   0  0  0  0  0  0  0  0  0  0  0  0
   -5.0926    0.4677    1.3946 C   0  0  0  0  0  0  0  0  0  0  0  0
   -1.9951   -0.6008    0.7475 O   0  0  0  0  0  0  0  0  0  0  0  0
   -2.0827   -1.9701    0.2989 C   0  0  0  0  0  0  0  0  0  0  0  0
   -2.7579   -2.7912    1.3791 C   0  0  0  0  0  0  0  0  0  0  0  0
    4.8673   -2.2263   -2.6957 H   0  0  0  0  0  0  0  0  0  0  0  0
    3.3565   -2.7401   -1.9234 H   0  0  0  0  0  0  0  0  0  0  0  0
    3.5284   -1.0851   -2.5266 H   0  0  0  0  0  0  0  0  0  0  0  0
    5.2151   -0.5730   -0.8255 H   0  0  0  0  0  0  0  0  0  0  0  0
    5.2040   -2.2667   -0.2491 H   0  0  0  0  0  0  0  0  0  0  0  0
    1.1914   -0.2759    3.3423 H   0  0  0  0  0  0  0  0  0  0  0  0
    0.1315   -0.5219    1.9320 H   0  0  0  0  0  0  0  0  0  0  0  0
    1.4735   -2.5087    1.2576 H   0  0  0  0  0  0  0  0  0  0  0  0
    2.5541   -2.2586    2.6344 H   0  0  0  0  0  0  0  0  0  0  0  0
    0.8608   -2.7048    2.9081 H   0  0  0  0  0  0  0  0  0  0  0  0
   -0.4609    0.6584   -2.3146 H   0  0  0  0  0  0  0  0  0  0  0  0
    1.1054    1.4599   -1.9231 H   0  0  0  0  0  0  0  0  0  0  0  0
   -4.6490    2.5840    1.6004 H   0  0  0  0  0  0  0  0  0  0  0  0
   -4.8381    2.0188   -0.0856 H   0  0  0  0  0  0  0  0  0  0  0  0
   -6.1604    0.6129    1.5265 H   0  0  0  0  0  0  0  0  0  0  0  0
   -4.9322   -0.3166    0.6554 H   0  0  0  0  0  0  0  0  0  0  0  0
   -4.6481    0.1667    2.3398 H   0  0  0  0  0  0  0  0  0  0  0  0
   -2.6428   -1.9965   -0.6414 H   0  0  0  0  0  0  0  0  0  0  0  0
   -1.0644   -2.3195    0.1137 H   0  0  0  0  0  0  0  0  0  0  0  0
   -2.7486   -3.8347    1.0819 H   0  0  0  0  0  0  0  0  0  0  0  0
   -2.2227   -2.6805    2.3177 H   0  0  0  0  0  0  0  0  0  0  0  0
   -3.7861   -2.4705    1.5203 H   0  0  0  0  0  0  0  0  0  0  0  0
  1  2  1  0  0  0  0
  2  3  1  0  0  0  0
  3  4  2  0  0  0  0
  4  5  2  0  0  0  0
  4  6  2  0  0  0  0
  6  7  1  0  0  0  0
  7  8  1  0  0  0  0
  4  9  1  0  0  0  0
  9 10  1  0  0  0  0
 10 11  1  0  0  0  0
 11 12  1  0  0  0  0
 12 13  2  0  0  0  0
 12 14  2  0  0  0  0
 14 15  1  0  0  0  0
 15 16  1  0  0  0  0
 12 17  2  0  0  0  0
 17 18  1  0  0  0  0
 18 19  1  0  0  0  0
  1 20  1  0  0  0  0
  1 21  1  0  0  0  0
  1 22  1  0  0  0  0
  2 23  1  0  0  0  0
  2 24  1  0  0  0  0
  7 25  1  0  0  0  0
  7 26  1  0  0  0  0
  8 27  1  0  0  0  0
  8 28  1  0  0  0  0
  8 29  1  0  0  0  0
 10 30  1  0  0  0  0
 10 31  1  0  0  0  0
 15 32  1  0  0  0  0
 15 33  1  0  0  0  0
 16 34  1  0  0  0  0
 16 35  1  0  0  0  0
 16 36  1  0  0  0  0
 18 37  1  0  0  0  0
 18 38  1  0  0  0  0
 19 39  1  0  0  0  0
 19 40  1  0  0  0  0
 19 41  1  0  0  0  0
M  END
