 xtb: 6.7.1 (edcfbbe)
          04092505213D

 41 40  0     0  0            999 V2000
    5.7497   -1.3976   -0.6436 C   0  0  0  0  0  0  0  0  0  0  0  0
    4.8190   -0.9020   -1.7307 C   0  0  0  0  0  0  0  0  0  0  0  0
    3.4304   -1.1153   -1.4029 O   0  0  0  0  0  0  0  0  0  0  0  0
    2.7120   -0.3591   -0.2127 P   0  0  0  0  0  0  0  0  0  0  0  0
    3.2269    1.5189    0.0617 S   0  0  0  0  0  0  0  0  0  0  0  0
    3.0255   -1.3156    1.0192 O   0  0  0  0  0  0  0  0  0  0  0  0
    2.8583   -0.8946    2.3837 C   0  0  0  0  0  0  0  0  0  0  0  0
    1.3975   -0.8124    2.7767 C   0  0  0  0  0  0  0  0  0  0  0  0
    0.7199   -0.7572   -0.8067 S   0  0  0  0  0  0  0  0  0  0  0  0
    0.0349    0.9295   -0.7221 C   0  0  0  0  0  0  0  0  0  0  0  0
   -1.1589    1.1476    0.6115 S   0  0  0  0  0  0  0  0  0  0  0  0
   -2.9504    0.6121   -0.4320 P   0  0  0  0  0  0  0  0  0  0  0  0
   -2.7755    0.6479   -2.3843 S   0  0  0  0  0  0  0  0  0  0  0  0
   -4.0535    1.6097    0.0758 O   0  0  0  0  0  0  0  0  0  0  0  0
   -4.7304    1.5354    1.3574 C   0  0  0  0  0  0  0  0  0  0  0  0
   -3.7752    1.6510    2.5252 C   0  0  0  0  0  0  0  0  0  0  0  0
   -3.4645   -0.7688    0.1713 O   0  0  0  0  0  0  0  0  0  0  0  0
   -2.8372   -2.0321   -0.1161 C   0  0  0  0  0  0  0  0  0  0  0  0
   -1.9842   -2.4773    1.0553 C   0  0  0  0  0  0  0  0  0  0  0  0
    5.5192   -2.4302   -0.3950 H   0  0  0  0  0  0  0  0  0  0  0  0
    6.7756   -1.3290   -0.9921 H   0  0  0  0  0  0  0  0  0  0  0  0
    5.6388   -0.7858    0.2505 H   0  0  0  0  0  0  0  0  0  0  0  0
    4.9522   -1.4563   -2.6608 H   0  0  0  0  0  0  0  0  0  0  0  0
    4.9702    0.1672   -1.9117 H   0  0  0  0  0  0  0  0  0  0  0  0
    3.3869   -1.6546    2.9607 H   0  0  0  0  0  0  0  0  0  0  0  0
    3.3476    0.0769    2.5102 H   0  0  0  0  0  0  0  0  0  0  0  0
    1.3225   -0.5918    3.8365 H   0  0  0  0  0  0  0  0  0  0  0  0
    0.9001   -0.0176    2.2202 H   0  0  0  0  0  0  0  0  0  0  0  0
    0.9018   -1.7573    2.5699 H   0  0  0  0  0  0  0  0  0  0  0  0
   -0.4670    1.1311   -1.6702 H   0  0  0  0  0  0  0  0  0  0  0  0
    0.8518    1.6329   -0.5472 H   0  0  0  0  0  0  0  0  0  0  0  0
   -5.4241    2.3764    1.3176 H   0  0  0  0  0  0  0  0  0  0  0  0
   -5.2843    0.5958    1.3937 H   0  0  0  0  0  0  0  0  0  0  0  0
   -4.3458    1.6742    3.4485 H   0  0  0  0  0  0  0  0  0  0  0  0
   -3.0997    0.7980    2.5468 H   0  0  0  0  0  0  0  0  0  0  0  0
   -3.1846    2.5600    2.4458 H   0  0  0  0  0  0  0  0  0  0  0  0
   -3.6637   -2.7237   -0.2913 H   0  0  0  0  0  0  0  0  0  0  0  0
   -2.2423   -1.9426   -1.0311 H   0  0  0  0  0  0  0  0  0  0  0  0
   -2.5881   -2.5347    1.9563 H   0  0  0  0  0  0  0  0  0  0  0  0
   -1.5667   -3.4547    0.8366 H   0  0  0  0  0  0  0  0  0  0  0  0
   -1.1707   -1.7750    1.2155 H   0  0  0  0  0  0  0  0  0  0  0  0
  1  2  1  0  0  0  0
  2  3  1  0  0  0  0
  3  4  2  0  0  0  0
  4  5  2  0  0  0  0
  4  6  2  0  0  0  0
  6  7  1  0  0  0  0
  7  8  1  0  0  0  0
  4  9  1  0  0  0  0
  9 10  1  0  0  0  0
 10 11  1  0  0  0  0
 11 12  1  0  0  0  0
 12 13  2  0  0  0  0
 12 14  2  0  0  0  0
 14 15  1  0  0  0  0
 15 16  1  0  0  0  0
 12 17  2  0  0  0  0
 17 18  1  0  0  0  0
 18 19  1  0  0  0  0
  1 20  1  0  0  0  0
  1 21  1  0  0  0  0
  1 22  1  0  0  0  0
  2 23  1  0  0  0  0
  2 24  1  0  0  0  0
  7 25  1  0  0  0  0
  7 26  1  0  0  0  0
  8 27  1  0  0  0  0
  8 28  1  0  0  0  0
  8 29  1  0  0  0  0
 10 30  1  0  0  0  0
 10 31  1  0  0  0  0
 15 32  1  0  0  0  0
 15 33  1  0  0  0  0
 16 34  1  0  0  0  0
 16 35  1  0  0  0  0
 16 36  1  0  0  0  0
 18 37  1  0  0  0  0
 18 38  1  0  0  0  0
 19 39  1  0  0  0  0
 19 40  1  0  0  0  0
 19 41  1  0  0  0  0
M  END
