 xtb: 6.7.1 (edcfbbe)
          04092505213D

 41 40  0     0  0            999 V2000
    1.9811    2.5284   -1.0313 C   0  0  0  0  0  0  0  0  0  0  0  0
    1.9982    1.1050   -1.5451 C   0  0  0  0  0  0  0  0  0  0  0  0
    1.3567    0.1775   -0.6434 O   0  0  0  0  0  0  0  0  0  0  0  0
    1.8474   -0.0408    0.8722 P   0  0  0  0  0  0  0  0  0  0  0  0
    1.0838    1.1616    2.2082 S   0  0  0  0  0  0  0  0  0  0  0  0
    3.4228    0.0968    0.8924 O   0  0  0  0  0  0  0  0  0  0  0  0
    4.3575   -0.8177    0.2622 C   0  0  0  0  0  0  0  0  0  0  0  0
    4.9487   -1.7542    1.2961 C   0  0  0  0  0  0  0  0  0  0  0  0
    1.4891   -2.1185    1.0648 S   0  0  0  0  0  0  0  0  0  0  0  0
   -0.1177   -2.2752    0.2360 C   0  0  0  0  0  0  0  0  0  0  0  0
   -1.3912   -1.1605    0.8788 S   0  0  0  0  0  0  0  0  0  0  0  0
   -1.6776    0.1067   -0.8191 P   0  0  0  0  0  0  0  0  0  0  0  0
   -0.9791   -0.5588   -2.5186 S   0  0  0  0  0  0  0  0  0  0  0  0
   -1.2036    1.5594   -0.4439 O   0  0  0  0  0  0  0  0  0  0  0  0
   -1.8053    2.3197    0.6357 C   0  0  0  0  0  0  0  0  0  0  0  0
   -2.7960    3.3234    0.0861 C   0  0  0  0  0  0  0  0  0  0  0  0
   -3.2603    0.2803   -0.7995 O   0  0  0  0  0  0  0  0  0  0  0  0
   -4.1312   -0.8117   -1.1533 C   0  0  0  0  0  0  0  0  0  0  0  0
   -5.5297   -0.2542   -1.3244 C   0  0  0  0  0  0  0  0  0  0  0  0
    2.4530    3.1778   -1.7620 H   0  0  0  0  0  0  0  0  0  0  0  0
    0.9567    2.8535   -0.8675 H   0  0  0  0  0  0  0  0  0  0  0  0
    2.5226    2.5930   -0.0875 H   0  0  0  0  0  0  0  0  0  0  0  0
    3.0226    0.7668   -1.7185 H   0  0  0  0  0  0  0  0  0  0  0  0
    1.4177    1.0020   -2.4649 H   0  0  0  0  0  0  0  0  0  0  0  0
    3.8494   -1.3762   -0.5279 H   0  0  0  0  0  0  0  0  0  0  0  0
    5.1241   -0.1710   -0.1687 H   0  0  0  0  0  0  0  0  0  0  0  0
    5.7016   -2.3763    0.8228 H   0  0  0  0  0  0  0  0  0  0  0  0
    5.4059   -1.1806    2.0975 H   0  0  0  0  0  0  0  0  0  0  0  0
    4.1731   -2.3902    1.7181 H   0  0  0  0  0  0  0  0  0  0  0  0
   -0.4379   -3.2961    0.4308 H   0  0  0  0  0  0  0  0  0  0  0  0
   -0.0049   -2.0926   -0.8363 H   0  0  0  0  0  0  0  0  0  0  0  0
   -2.2799    1.6289    1.3373 H   0  0  0  0  0  0  0  0  0  0  0  0
   -0.9664    2.8073    1.1372 H   0  0  0  0  0  0  0  0  0  0  0  0
   -3.1815    3.9203    0.9065 H   0  0  0  0  0  0  0  0  0  0  0  0
   -2.3072    3.9747   -0.6332 H   0  0  0  0  0  0  0  0  0  0  0  0
   -3.6184    2.8099   -0.4049 H   0  0  0  0  0  0  0  0  0  0  0  0
   -3.7625   -1.2635   -2.0801 H   0  0  0  0  0  0  0  0  0  0  0  0
   -4.0923   -1.5554   -0.3522 H   0  0  0  0  0  0  0  0  0  0  0  0
   -5.5416    0.4881   -2.1175 H   0  0  0  0  0  0  0  0  0  0  0  0
   -6.2050   -1.0634   -1.5819 H   0  0  0  0  0  0  0  0  0  0  0  0
   -5.8610    0.2101   -0.4000 H   0  0  0  0  0  0  0  0  0  0  0  0
  1  2  1  0  0  0  0
  2  3  1  0  0  0  0
  3  4  1  0  0  0  0
  4  5  2  0  0  0  0
  4  6  2  0  0  0  0
  6  7  1  0  0  0  0
  7  8  1  0  0  0  0
  4  9  1  0  0  0  0
  9 10  1  0  0  0  0
 10 11  1  0  0  0  0
 11 12  1  0  0  0  0
 12 13  2  0  0  0  0
 12 14  2  0  0  0  0
 14 15  1  0  0  0  0
 15 16  1  0  0  0  0
 12 17  2  0  0  0  0
 17 18  1  0  0  0  0
 18 19  1  0  0  0  0
  1 20  1  0  0  0  0
  1 21  1  0  0  0  0
  1 22  1  0  0  0  0
  2 23  1  0  0  0  0
  2 24  1  0  0  0  0
  7 25  1  0  0  0  0
  7 26  1  0  0  0  0
  8 27  1  0  0  0  0
  8 28  1  0  0  0  0
  8 29  1  0  0  0  0
 10 30  1  0  0  0  0
 10 31  1  0  0  0  0
 15 32  1  0  0  0  0
 15 33  1  0  0  0  0
 16 34  1  0  0  0  0
 16 35  1  0  0  0  0
 16 36  1  0  0  0  0
 18 37  1  0  0  0  0
 18 38  1  0  0  0  0
 19 39  1  0  0  0  0
 19 40  1  0  0  0  0
 19 41  1  0  0  0  0
M  END
