 xtb: 6.7.1 (edcfbbe)
          04092505213D

 41 40  0     0  0            999 V2000
    4.2807    1.8958   -0.7493 C   0  0  0  0  0  0  0  0  0  0  0  0
    4.4608    0.6110    0.0346 C   0  0  0  0  0  0  0  0  0  0  0  0
    3.3483   -0.2797   -0.1255 O   0  0  0  0  0  0  0  0  0  0  0  0
    1.9018    0.0413    0.4791 P   0  0  0  0  0  0  0  0  0  0  0  0
    1.9553    0.8738    2.2510 S   0  0  0  0  0  0  0  0  0  0  0  0
    1.2329   -1.3890    0.3581 O   0  0  0  0  0  0  0  0  0  0  0  0
    1.2169   -2.3144    1.4585 C   0  0  0  0  0  0  0  0  0  0  0  0
    2.5844   -2.9161    1.7034 C   0  0  0  0  0  0  0  0  0  0  0  0
    0.8991    1.0899   -1.0645 S   0  0  0  0  0  0  0  0  0  0  0  0
    0.4365   -0.2638   -2.1600 C   0  0  0  0  0  0  0  0  0  0  0  0
   -0.9490   -1.3367   -1.5894 S   0  0  0  0  0  0  0  0  0  0  0  0
   -2.1042   -0.1033   -0.3571 P   0  0  0  0  0  0  0  0  0  0  0  0
   -3.8674   -0.8383    0.0759 S   0  0  0  0  0  0  0  0  0  0  0  0
   -2.1572    1.3593   -0.9931 O   0  0  0  0  0  0  0  0  0  0  0  0
   -3.1962    1.7592   -1.9031 C   0  0  0  0  0  0  0  0  0  0  0  0
   -2.9218    1.2700   -3.3111 C   0  0  0  0  0  0  0  0  0  0  0  0
   -1.1268    0.1327    0.8820 O   0  0  0  0  0  0  0  0  0  0  0  0
   -1.6218    0.8455    2.0418 C   0  0  0  0  0  0  0  0  0  0  0  0
   -1.9465   -0.1205    3.1618 C   0  0  0  0  0  0  0  0  0  0  0  0
    4.0965    1.6797   -1.7982 H   0  0  0  0  0  0  0  0  0  0  0  0
    3.4338    2.4564   -0.3530 H   0  0  0  0  0  0  0  0  0  0  0  0
    5.1771    2.5007   -0.6574 H   0  0  0  0  0  0  0  0  0  0  0  0
    4.5794    0.8279    1.1014 H   0  0  0  0  0  0  0  0  0  0  0  0
    5.3155    0.0356   -0.3237 H   0  0  0  0  0  0  0  0  0  0  0  0
    0.8588   -1.7894    2.3501 H   0  0  0  0  0  0  0  0  0  0  0  0
    0.4859   -3.0676    1.1579 H   0  0  0  0  0  0  0  0  0  0  0  0
    2.5074   -3.6802    2.4705 H   0  0  0  0  0  0  0  0  0  0  0  0
    2.9691   -3.3579    0.7882 H   0  0  0  0  0  0  0  0  0  0  0  0
    3.2733   -2.1428    2.0408 H   0  0  0  0  0  0  0  0  0  0  0  0
    1.2781   -0.9377   -2.3012 H   0  0  0  0  0  0  0  0  0  0  0  0
    0.1420    0.2026   -3.0969 H   0  0  0  0  0  0  0  0  0  0  0  0
   -4.1509    1.3688   -1.5339 H   0  0  0  0  0  0  0  0  0  0  0  0
   -3.1934    2.8486   -1.8474 H   0  0  0  0  0  0  0  0  0  0  0  0
   -1.9608    1.6420   -3.6564 H   0  0  0  0  0  0  0  0  0  0  0  0
   -2.9181    0.1809   -3.3340 H   0  0  0  0  0  0  0  0  0  0  0  0
   -3.7029    1.6319   -3.9720 H   0  0  0  0  0  0  0  0  0  0  0  0
   -0.8151    1.5255    2.3248 H   0  0  0  0  0  0  0  0  0  0  0  0
   -2.5033    1.4242    1.7531 H   0  0  0  0  0  0  0  0  0  0  0  0
   -1.0563   -0.6742    3.4489 H   0  0  0  0  0  0  0  0  0  0  0  0
   -2.3069    0.4402    4.0183 H   0  0  0  0  0  0  0  0  0  0  0  0
   -2.7149   -0.8218    2.8429 H   0  0  0  0  0  0  0  0  0  0  0  0
  1  2  1  0  0  0  0
  2  3  1  0  0  0  0
  3  4  1  0  0  0  0
  4  5  2  0  0  0  0
  4  6  2  0  0  0  0
  6  7  1  0  0  0  0
  7  8  1  0  0  0  0
  4  9  1  0  0  0  0
  9 10  1  0  0  0  0
 10 11  1  0  0  0  0
 11 12  1  0  0  0  0
 12 13  2  0  0  0  0
 12 14  2  0  0  0  0
 14 15  1  0  0  0  0
 15 16  1  0  0  0  0
 12 17  1  0  0  0  0
 17 18  1  0  0  0  0
 18 19  1  0  0  0  0
  1 20  1  0  0  0  0
  1 21  1  0  0  0  0
  1 22  1  0  0  0  0
  2 23  1  0  0  0  0
  2 24  1  0  0  0  0
  7 25  1  0  0  0  0
  7 26  1  0  0  0  0
  8 27  1  0  0  0  0
  8 28  1  0  0  0  0
  8 29  1  0  0  0  0
 10 30  1  0  0  0  0
 10 31  1  0  0  0  0
 15 32  1  0  0  0  0
 15 33  1  0  0  0  0
 16 34  1  0  0  0  0
 16 35  1  0  0  0  0
 16 36  1  0  0  0  0
 18 37  1  0  0  0  0
 18 38  1  0  0  0  0
 19 39  1  0  0  0  0
 19 40  1  0  0  0  0
 19 41  1  0  0  0  0
M  END
