 xtb: 6.7.1 (edcfbbe)
          04092505203D

 41 40  0     0  0            999 V2000
    4.3643    0.3700   -2.0139 C   0  0  0  0  0  0  0  0  0  0  0  0
    4.7757    0.0989   -0.5811 C   0  0  0  0  0  0  0  0  0  0  0  0
    3.7729   -0.6282    0.1483 O   0  0  0  0  0  0  0  0  0  0  0  0
    2.3438   -0.0067    0.4905 P   0  0  0  0  0  0  0  0  0  0  0  0
    2.3622    1.8801    0.9903 S   0  0  0  0  0  0  0  0  0  0  0  0
    1.8787   -0.9596    1.6620 O   0  0  0  0  0  0  0  0  0  0  0  0
    2.0035   -2.4041    1.5557 C   0  0  0  0  0  0  0  0  0  0  0  0
    0.6922   -3.0522    1.9466 C   0  0  0  0  0  0  0  0  0  0  0  0
    1.1123   -0.5906   -1.1646 S   0  0  0  0  0  0  0  0  0  0  0  0
    0.2598    0.9828   -1.4486 C   0  0  0  0  0  0  0  0  0  0  0  0
   -0.8830    1.4488   -0.1279 S   0  0  0  0  0  0  0  0  0  0  0  0
   -2.3135   -0.1154   -0.3982 P   0  0  0  0  0  0  0  0  0  0  0  0
   -2.3751   -0.9033   -2.1878 S   0  0  0  0  0  0  0  0  0  0  0  0
   -3.6797    0.5073    0.1271 O   0  0  0  0  0  0  0  0  0  0  0  0
   -4.5770    1.2261   -0.7379 C   0  0  0  0  0  0  0  0  0  0  0  0
   -3.9825    2.5266   -1.2373 C   0  0  0  0  0  0  0  0  0  0  0  0
   -2.0062   -1.1977    0.7151 O   0  0  0  0  0  0  0  0  0  0  0  0
   -2.3951   -1.0939    2.1070 C   0  0  0  0  0  0  0  0  0  0  0  0
   -1.6299   -0.0131    2.8425 C   0  0  0  0  0  0  0  0  0  0  0  0
    3.5346    1.0753   -2.0352 H   0  0  0  0  0  0  0  0  0  0  0  0
    5.2025    0.8006   -2.5521 H   0  0  0  0  0  0  0  0  0  0  0  0
    4.0560   -0.5510   -2.5026 H   0  0  0  0  0  0  0  0  0  0  0  0
    4.9720    1.0372   -0.0533 H   0  0  0  0  0  0  0  0  0  0  0  0
    5.6528   -0.5477   -0.5299 H   0  0  0  0  0  0  0  0  0  0  0  0
    2.2805   -2.6639    0.5310 H   0  0  0  0  0  0  0  0  0  0  0  0
    2.8105   -2.6887    2.2329 H   0  0  0  0  0  0  0  0  0  0  0  0
   -0.0905   -2.7662    1.2477 H   0  0  0  0  0  0  0  0  0  0  0  0
    0.8108   -4.1309    1.9216 H   0  0  0  0  0  0  0  0  0  0  0  0
    0.4092   -2.7444    2.9493 H   0  0  0  0  0  0  0  0  0  0  0  0
   -0.2875    0.8531   -2.3817 H   0  0  0  0  0  0  0  0  0  0  0  0
    0.9828    1.7937   -1.5129 H   0  0  0  0  0  0  0  0  0  0  0  0
   -4.8379    0.5759   -1.5786 H   0  0  0  0  0  0  0  0  0  0  0  0
   -5.4550    1.3986   -0.1137 H   0  0  0  0  0  0  0  0  0  0  0  0
   -3.1549    2.3216   -1.9147 H   0  0  0  0  0  0  0  0  0  0  0  0
   -4.7436    3.0849   -1.7728 H   0  0  0  0  0  0  0  0  0  0  0  0
   -3.6155    3.1225   -0.4054 H   0  0  0  0  0  0  0  0  0  0  0  0
   -3.4695   -0.9082    2.1511 H   0  0  0  0  0  0  0  0  0  0  0  0
   -2.1732   -2.0854    2.5046 H   0  0  0  0  0  0  0  0  0  0  0  0
   -0.5572   -0.1391    2.7055 H   0  0  0  0  0  0  0  0  0  0  0  0
   -1.9109    0.9722    2.4749 H   0  0  0  0  0  0  0  0  0  0  0  0
   -1.8610   -0.0727    3.9016 H   0  0  0  0  0  0  0  0  0  0  0  0
  1  2  1  0  0  0  0
  2  3  1  0  0  0  0
  3  4  2  0  0  0  0
  4  5  2  0  0  0  0
  4  6  2  0  0  0  0
  6  7  1  0  0  0  0
  7  8  1  0  0  0  0
  4  9  1  0  0  0  0
  9 10  1  0  0  0  0
 10 11  1  0  0  0  0
 11 12  1  0  0  0  0
 12 13  2  0  0  0  0
 12 14  2  0  0  0  0
 14 15  1  0  0  0  0
 15 16  1  0  0  0  0
 12 17  2  0  0  0  0
 17 18  1  0  0  0  0
 18 19  1  0  0  0  0
  1 20  1  0  0  0  0
  1 21  1  0  0  0  0
  1 22  1  0  0  0  0
  2 23  1  0  0  0  0
  2 24  1  0  0  0  0
  7 25  1  0  0  0  0
  7 26  1  0  0  0  0
  8 27  1  0  0  0  0
  8 28  1  0  0  0  0
  8 29  1  0  0  0  0
 10 30  1  0  0  0  0
 10 31  1  0  0  0  0
 15 32  1  0  0  0  0
 15 33  1  0  0  0  0
 16 34  1  0  0  0  0
 16 35  1  0  0  0  0
 16 36  1  0  0  0  0
 18 37  1  0  0  0  0
 18 38  1  0  0  0  0
 19 39  1  0  0  0  0
 19 40  1  0  0  0  0
 19 41  1  0  0  0  0
M  END
