 xtb: 6.7.1 (edcfbbe)
          04092507313D

 38 37  0     0  0            999 V2000
    1.5943   -3.5337   -2.4483 C   0  0  0  0  0  0  0  0  0  0  0  0
    2.9054   -2.9192   -1.9844 C   0  0  0  0  0  0  0  0  0  0  0  0
    2.6841   -1.6006   -1.4500 O   0  0  0  0  0  0  0  0  0  0  0  0
    2.3232   -1.4879   -0.1875 C   0  0  0  0  0  0  0  0  0  0  0  0
    2.2446   -2.4072    0.5950 O   0  0  0  0  0  0  0  0  0  0  0  0
    2.0181   -0.0447    0.1775 C   0  0  0  0  0  0  0  0  0  0  0  0
    1.0662    0.5749   -0.8466 C   0  0  0  0  0  0  0  0  0  0  0  0
    1.5742    0.6965   -1.8062 H   0  0  0  0  0  0  0  0  0  0  0  0
    0.5344    1.9110   -0.3641 C   0  0  0  0  0  0  0  0  0  0  0  0
   -0.6554    2.1095   -0.2062 O   0  0  0  0  0  0  0  0  0  0  0  0
    1.4832    2.7749   -0.1522 O   0  0  0  0  0  0  0  0  0  0  0  0
    1.1307    4.0611    0.4071 C   0  0  0  0  0  0  0  0  0  0  0  0
    1.0939    3.9856    1.9243 C   0  0  0  0  0  0  0  0  0  0  0  0
   -0.3680   -0.4967   -1.2009 S   0  0  0  0  0  0  0  0  0  0  0  0
   -1.5648   -0.1401    0.4983 P   0  0  0  0  0  0  0  0  0  0  0  0
   -0.9257    0.4241    2.2612 S   0  0  0  0  0  0  0  0  0  0  0  0
   -2.9034    0.6362    0.1046 O   0  0  0  0  0  0  0  0  0  0  0  0
   -3.5148    0.4832   -1.1870 C   0  0  0  0  0  0  0  0  0  0  0  0
   -2.0337   -1.6965    0.5178 O   0  0  0  0  0  0  0  0  0  0  0  0
   -2.9081   -2.1720    1.5414 C   0  0  0  0  0  0  0  0  0  0  0  0
    1.1085   -2.8802   -3.1676 H   0  0  0  0  0  0  0  0  0  0  0  0
    1.7894   -4.4976   -2.9060 H   0  0  0  0  0  0  0  0  0  0  0  0
    0.9266   -3.6713   -1.6005 H   0  0  0  0  0  0  0  0  0  0  0  0
    3.5905   -2.7636   -2.8176 H   0  0  0  0  0  0  0  0  0  0  0  0
    3.3730   -3.5371   -1.2127 H   0  0  0  0  0  0  0  0  0  0  0  0
    2.9470    0.5277    0.1921 H   0  0  0  0  0  0  0  0  0  0  0  0
    1.5793   -0.0384    1.1781 H   0  0  0  0  0  0  0  0  0  0  0  0
    1.9157    4.7308    0.0571 H   0  0  0  0  0  0  0  0  0  0  0  0
    0.1584    4.3613    0.0086 H   0  0  0  0  0  0  0  0  0  0  0  0
    2.0607    3.6773    2.3116 H   0  0  0  0  0  0  0  0  0  0  0  0
    0.8410    4.9607    2.3267 H   0  0  0  0  0  0  0  0  0  0  0  0
    0.3436    3.2661    2.2494 H   0  0  0  0  0  0  0  0  0  0  0  0
   -4.5474    0.7980   -1.0581 H   0  0  0  0  0  0  0  0  0  0  0  0
   -3.4629   -0.5554   -1.5167 H   0  0  0  0  0  0  0  0  0  0  0  0
   -3.0043    1.1275   -1.9019 H   0  0  0  0  0  0  0  0  0  0  0  0
   -3.8585   -1.6364    1.5142 H   0  0  0  0  0  0  0  0  0  0  0  0
   -2.4444   -2.0368    2.5203 H   0  0  0  0  0  0  0  0  0  0  0  0
   -3.0552   -3.2287    1.3337 H   0  0  0  0  0  0  0  0  0  0  0  0
  1  2  1  0  0  0  0
  2  3  1  0  0  0  0
  3  4  1  0  0  0  0
  4  5  2  0  0  0  0
  4  6  1  0  0  0  0
  6  7  1  0  0  0  0
  7  8  1  0  0  0  0
  7  9  1  0  0  0  0
  9 10  2  0  0  0  0
  9 11  4  0  0  0  0
 11 12  1  0  0  0  0
 12 13  1  0  0  0  0
  7 14  1  0  0  0  0
 14 15  1  0  0  0  0
 15 16  2  0  0  0  0
 15 17  1  0  0  0  0
 17 18  1  0  0  0  0
 15 19  1  0  0  0  0
 19 20  1  0  0  0  0
  1 21  1  0  0  0  0
  1 22  1  0  0  0  0
  1 23  1  0  0  0  0
  2 24  1  0  0  0  0
  2 25  1  0  0  0  0
  6 26  1  0  0  0  0
  6 27  1  0  0  0  0
 12 28  1  0  0  0  0
 12 29  1  0  0  0  0
 13 30  1  0  0  0  0
 13 31  1  0  0  0  0
 13 32  1  0  0  0  0
 18 33  1  0  0  0  0
 18 34  1  0  0  0  0
 18 35  1  0  0  0  0
 20 36  1  0  0  0  0
 20 37  1  0  0  0  0
 20 38  1  0  0  0  0
M  END
