 xtb: 6.7.1 (edcfbbe)
          04092505213D

 41 40  0     0  0            999 V2000
    4.0983   -0.8767   -2.7070 C   0  0  0  0  0  0  0  0  0  0  0  0
    4.3753   -0.0749   -1.4506 C   0  0  0  0  0  0  0  0  0  0  0  0
    3.1971    0.6773   -1.0618 O   0  0  0  0  0  0  0  0  0  0  0  0
    2.2724    0.2993    0.1572 P   0  0  0  0  0  0  0  0  0  0  0  0
    0.8359    1.6250    0.2792 S   0  0  0  0  0  0  0  0  0  0  0  0
    3.3273    0.2416    1.3446 O   0  0  0  0  0  0  0  0  0  0  0  0
    3.1101   -0.4007    2.6170 C   0  0  0  0  0  0  0  0  0  0  0  0
    1.7998   -0.0022    3.2627 C   0  0  0  0  0  0  0  0  0  0  0  0
    1.7245   -1.7494   -0.0725 S   0  0  0  0  0  0  0  0  0  0  0  0
    0.0638   -1.5651   -0.7493 C   0  0  0  0  0  0  0  0  0  0  0  0
   -1.1801   -1.2249    0.5432 S   0  0  0  0  0  0  0  0  0  0  0  0
   -2.3044    0.3140   -0.4084 P   0  0  0  0  0  0  0  0  0  0  0  0
   -1.7795    0.8050   -2.2258 S   0  0  0  0  0  0  0  0  0  0  0  0
   -2.3272    1.5219    0.5974 O   0  0  0  0  0  0  0  0  0  0  0  0
   -2.6597    1.3722    2.0023 C   0  0  0  0  0  0  0  0  0  0  0  0
   -1.9782    2.4897    2.7628 C   0  0  0  0  0  0  0  0  0  0  0  0
   -3.8135   -0.1969   -0.2734 O   0  0  0  0  0  0  0  0  0  0  0  0
   -4.4580   -1.0358   -1.2464 C   0  0  0  0  0  0  0  0  0  0  0  0
   -3.7983   -2.3939   -1.3750 C   0  0  0  0  0  0  0  0  0  0  0  0
    5.0232   -1.3320   -3.0465 H   0  0  0  0  0  0  0  0  0  0  0  0
    3.3693   -1.6589   -2.5106 H   0  0  0  0  0  0  0  0  0  0  0  0
    3.7134   -0.2243   -3.4863 H   0  0  0  0  0  0  0  0  0  0  0  0
    5.1402    0.6835   -1.6247 H   0  0  0  0  0  0  0  0  0  0  0  0
    4.6784   -0.7198   -0.6235 H   0  0  0  0  0  0  0  0  0  0  0  0
    3.1501   -1.4822    2.4609 H   0  0  0  0  0  0  0  0  0  0  0  0
    3.9643   -0.0782    3.2148 H   0  0  0  0  0  0  0  0  0  0  0  0
    0.9609   -0.3517    2.6611 H   0  0  0  0  0  0  0  0  0  0  0  0
    1.7336   -0.4476    4.2500 H   0  0  0  0  0  0  0  0  0  0  0  0
    1.7345    1.0801    3.3490 H   0  0  0  0  0  0  0  0  0  0  0  0
   -0.1731   -2.5208   -1.2102 H   0  0  0  0  0  0  0  0  0  0  0  0
    0.0335   -0.7515   -1.4787 H   0  0  0  0  0  0  0  0  0  0  0  0
   -3.7469    1.4216    2.0888 H   0  0  0  0  0  0  0  0  0  0  0  0
   -2.3123    0.3915    2.3416 H   0  0  0  0  0  0  0  0  0  0  0  0
   -2.3525    3.4526    2.4279 H   0  0  0  0  0  0  0  0  0  0  0  0
   -2.1704    2.3714    3.8239 H   0  0  0  0  0  0  0  0  0  0  0  0
   -0.9071    2.4558    2.5790 H   0  0  0  0  0  0  0  0  0  0  0  0
   -5.4813   -1.1177   -0.8770 H   0  0  0  0  0  0  0  0  0  0  0  0
   -4.4495   -0.5133   -2.2080 H   0  0  0  0  0  0  0  0  0  0  0  0
   -3.6966   -2.8613   -0.3988 H   0  0  0  0  0  0  0  0  0  0  0  0
   -4.4048   -3.0248   -2.0168 H   0  0  0  0  0  0  0  0  0  0  0  0
   -2.8122   -2.2820   -1.8240 H   0  0  0  0  0  0  0  0  0  0  0  0
  1  2  1  0  0  0  0
  2  3  1  0  0  0  0
  3  4  2  0  0  0  0
  4  5  2  0  0  0  0
  4  6  2  0  0  0  0
  6  7  1  0  0  0  0
  7  8  1  0  0  0  0
  4  9  1  0  0  0  0
  9 10  1  0  0  0  0
 10 11  1  0  0  0  0
 11 12  1  0  0  0  0
 12 13  2  0  0  0  0
 12 14  2  0  0  0  0
 14 15  1  0  0  0  0
 15 16  1  0  0  0  0
 12 17  2  0  0  0  0
 17 18  1  0  0  0  0
 18 19  1  0  0  0  0
  1 20  1  0  0  0  0
  1 21  1  0  0  0  0
  1 22  1  0  0  0  0
  2 23  1  0  0  0  0
  2 24  1  0  0  0  0
  7 25  1  0  0  0  0
  7 26  1  0  0  0  0
  8 27  1  0  0  0  0
  8 28  1  0  0  0  0
  8 29  1  0  0  0  0
 10 30  1  0  0  0  0
 10 31  1  0  0  0  0
 15 32  1  0  0  0  0
 15 33  1  0  0  0  0
 16 34  1  0  0  0  0
 16 35  1  0  0  0  0
 16 36  1  0  0  0  0
 18 37  1  0  0  0  0
 18 38  1  0  0  0  0
 19 39  1  0  0  0  0
 19 40  1  0  0  0  0
 19 41  1  0  0  0  0
M  END
