 xtb: 6.7.1 (edcfbbe)
          04092505203D

 41 40  0     0  0            999 V2000
    3.2015    0.1450    3.3283 C   0  0  0  0  0  0  0  0  0  0  0  0
    1.8746   -0.3392    2.7837 C   0  0  0  0  0  0  0  0  0  0  0  0
    1.5872    0.2437    1.4938 O   0  0  0  0  0  0  0  0  0  0  0  0
    2.3656   -0.1939    0.1860 P   0  0  0  0  0  0  0  0  0  0  0  0
    2.9809   -2.0590    0.1447 S   0  0  0  0  0  0  0  0  0  0  0  0
    3.5093    0.9045    0.0989 O   0  0  0  0  0  0  0  0  0  0  0  0
    4.6625    0.7521   -0.7464 C   0  0  0  0  0  0  0  0  0  0  0  0
    4.3062    0.8333   -2.2168 C   0  0  0  0  0  0  0  0  0  0  0  0
    0.9604    0.3763   -1.2868 S   0  0  0  0  0  0  0  0  0  0  0  0
   -0.0656   -1.1130   -1.1415 C   0  0  0  0  0  0  0  0  0  0  0  0
   -1.1646   -1.0763    0.2896 S   0  0  0  0  0  0  0  0  0  0  0  0
   -2.5268    0.3610   -0.5164 P   0  0  0  0  0  0  0  0  0  0  0  0
   -2.8891    0.1271   -2.4266 S   0  0  0  0  0  0  0  0  0  0  0  0
   -1.9276    1.7904   -0.2186 O   0  0  0  0  0  0  0  0  0  0  0  0
   -2.0551    2.5323    1.0182 C   0  0  0  0  0  0  0  0  0  0  0  0
   -1.3762    1.8406    2.1808 C   0  0  0  0  0  0  0  0  0  0  0  0
   -3.7874    0.3060    0.4473 O   0  0  0  0  0  0  0  0  0  0  0  0
   -4.8823   -0.6049    0.2342 C   0  0  0  0  0  0  0  0  0  0  0  0
   -4.4746   -2.0514    0.4221 C   0  0  0  0  0  0  0  0  0  0  0  0
    3.2290    1.2313    3.3421 H   0  0  0  0  0  0  0  0  0  0  0  0
    3.3367   -0.2343    4.3363 H   0  0  0  0  0  0  0  0  0  0  0  0
    4.0141   -0.2194    2.7010 H   0  0  0  0  0  0  0  0  0  0  0  0
    1.0376   -0.0260    3.4087 H   0  0  0  0  0  0  0  0  0  0  0  0
    1.8704   -1.4287    2.6790 H   0  0  0  0  0  0  0  0  0  0  0  0
    5.3188    1.5695   -0.4449 H   0  0  0  0  0  0  0  0  0  0  0  0
    5.1338   -0.2096   -0.5188 H   0  0  0  0  0  0  0  0  0  0  0  0
    5.2158    0.8314   -2.8090 H   0  0  0  0  0  0  0  0  0  0  0  0
    3.6977   -0.0243   -2.5018 H   0  0  0  0  0  0  0  0  0  0  0  0
    3.7438    1.7412   -2.4203 H   0  0  0  0  0  0  0  0  0  0  0  0
    0.5792   -1.9860   -1.0334 H   0  0  0  0  0  0  0  0  0  0  0  0
   -0.6654   -1.1721   -2.0507 H   0  0  0  0  0  0  0  0  0  0  0  0
   -1.5791    3.4859    0.7837 H   0  0  0  0  0  0  0  0  0  0  0  0
   -3.1177    2.6836    1.2175 H   0  0  0  0  0  0  0  0  0  0  0  0
   -0.3346    1.6413    1.9407 H   0  0  0  0  0  0  0  0  0  0  0  0
   -1.4262    2.4837    3.0541 H   0  0  0  0  0  0  0  0  0  0  0  0
   -1.8747    0.8983    2.4013 H   0  0  0  0  0  0  0  0  0  0  0  0
   -5.6223   -0.2952    0.9737 H   0  0  0  0  0  0  0  0  0  0  0  0
   -5.2722   -0.4440   -0.7754 H   0  0  0  0  0  0  0  0  0  0  0  0
   -5.3581   -2.6798    0.3766 H   0  0  0  0  0  0  0  0  0  0  0  0
   -3.7889   -2.3512   -0.3690 H   0  0  0  0  0  0  0  0  0  0  0  0
   -3.9828   -2.1876    1.3820 H   0  0  0  0  0  0  0  0  0  0  0  0
  1  2  1  0  0  0  0
  2  3  1  0  0  0  0
  3  4  2  0  0  0  0
  4  5  2  0  0  0  0
  4  6  2  0  0  0  0
  6  7  1  0  0  0  0
  7  8  1  0  0  0  0
  4  9  1  0  0  0  0
  9 10  1  0  0  0  0
 10 11  1  0  0  0  0
 11 12  1  0  0  0  0
 12 13  2  0  0  0  0
 12 14  2  0  0  0  0
 14 15  1  0  0  0  0
 15 16  1  0  0  0  0
 12 17  2  0  0  0  0
 17 18  1  0  0  0  0
 18 19  1  0  0  0  0
  1 20  1  0  0  0  0
  1 21  1  0  0  0  0
  1 22  1  0  0  0  0
  2 23  1  0  0  0  0
  2 24  1  0  0  0  0
  7 25  1  0  0  0  0
  7 26  1  0  0  0  0
  8 27  1  0  0  0  0
  8 28  1  0  0  0  0
  8 29  1  0  0  0  0
 10 30  1  0  0  0  0
 10 31  1  0  0  0  0
 15 32  1  0  0  0  0
 15 33  1  0  0  0  0
 16 34  1  0  0  0  0
 16 35  1  0  0  0  0
 16 36  1  0  0  0  0
 18 37  1  0  0  0  0
 18 38  1  0  0  0  0
 19 39  1  0  0  0  0
 19 40  1  0  0  0  0
 19 41  1  0  0  0  0
M  END
