 xtb: 6.7.1 (edcfbbe)
          04092505203D

 41 40  0     0  0            999 V2000
    4.4795   -1.7436   -0.7922 C   0  0  0  0  0  0  0  0  0  0  0  0
    4.6149   -0.3436   -0.2289 C   0  0  0  0  0  0  0  0  0  0  0  0
    3.4642    0.0515    0.5372 O   0  0  0  0  0  0  0  0  0  0  0  0
    2.0403    0.3143   -0.1245 P   0  0  0  0  0  0  0  0  0  0  0  0
    2.1168    1.1713   -1.8905 S   0  0  0  0  0  0  0  0  0  0  0  0
    1.3097    1.0959    1.0442 O   0  0  0  0  0  0  0  0  0  0  0  0
    1.3626    2.5291    1.1698 C   0  0  0  0  0  0  0  0  0  0  0  0
    2.7586    3.0265    1.4772 C   0  0  0  0  0  0  0  0  0  0  0  0
    1.1081   -1.5621    0.0133 S   0  0  0  0  0  0  0  0  0  0  0  0
   -0.0383   -1.4760   -1.4079 C   0  0  0  0  0  0  0  0  0  0  0  0
   -1.7625   -1.6935   -0.9314 S   0  0  0  0  0  0  0  0  0  0  0  0
   -1.9996    0.1195    0.1532 P   0  0  0  0  0  0  0  0  0  0  0  0
   -1.3558    1.6871   -0.8340 S   0  0  0  0  0  0  0  0  0  0  0  0
   -1.2964   -0.0238    1.5541 O   0  0  0  0  0  0  0  0  0  0  0  0
   -1.7966   -0.7711    2.6932 C   0  0  0  0  0  0  0  0  0  0  0  0
   -1.9010   -2.2569    2.4218 C   0  0  0  0  0  0  0  0  0  0  0  0
   -3.5342    0.1551    0.5539 O   0  0  0  0  0  0  0  0  0  0  0  0
   -4.5781    0.4405   -0.3978 C   0  0  0  0  0  0  0  0  0  0  0  0
   -5.1869   -0.8378   -0.9393 C   0  0  0  0  0  0  0  0  0  0  0  0
    3.7005   -1.7638   -1.5531 H   0  0  0  0  0  0  0  0  0  0  0  0
    5.4204   -2.0390   -1.2452 H   0  0  0  0  0  0  0  0  0  0  0  0
    4.2199   -2.4456   -0.0039 H   0  0  0  0  0  0  0  0  0  0  0  0
    4.7559    0.3816   -1.0369 H   0  0  0  0  0  0  0  0  0  0  0  0
    5.4381   -0.2732    0.4833 H   0  0  0  0  0  0  0  0  0  0  0  0
    0.9832    2.9711    0.2418 H   0  0  0  0  0  0  0  0  0  0  0  0
    0.6634    2.7424    1.9802 H   0  0  0  0  0  0  0  0  0  0  0  0
    2.7214    4.0931    1.6754 H   0  0  0  0  0  0  0  0  0  0  0  0
    3.1590    2.5071    2.3441 H   0  0  0  0  0  0  0  0  0  0  0  0
    3.4119    2.8481    0.6239 H   0  0  0  0  0  0  0  0  0  0  0  0
    0.1931   -2.2993   -2.0786 H   0  0  0  0  0  0  0  0  0  0  0  0
    0.0943   -0.5115   -1.9062 H   0  0  0  0  0  0  0  0  0  0  0  0
   -1.0568   -0.5569    3.4664 H   0  0  0  0  0  0  0  0  0  0  0  0
   -2.7644   -0.3516    2.9731 H   0  0  0  0  0  0  0  0  0  0  0  0
   -2.1522   -2.7639    3.3484 H   0  0  0  0  0  0  0  0  0  0  0  0
   -2.6770   -2.4578    1.6866 H   0  0  0  0  0  0  0  0  0  0  0  0
   -0.9537   -2.6419    2.0502 H   0  0  0  0  0  0  0  0  0  0  0  0
   -5.3116    1.0198    0.1664 H   0  0  0  0  0  0  0  0  0  0  0  0
   -4.1659    1.0621   -1.1991 H   0  0  0  0  0  0  0  0  0  0  0  0
   -5.5652   -1.4451   -0.1220 H   0  0  0  0  0  0  0  0  0  0  0  0
   -6.0058   -0.5835   -1.6045 H   0  0  0  0  0  0  0  0  0  0  0  0
   -4.4455   -1.4121   -1.4903 H   0  0  0  0  0  0  0  0  0  0  0  0
  1  2  1  0  0  0  0
  2  3  1  0  0  0  0
  3  4  2  0  0  0  0
  4  5  2  0  0  0  0
  4  6  2  0  0  0  0
  6  7  1  0  0  0  0
  7  8  1  0  0  0  0
  4  9  1  0  0  0  0
  9 10  1  0  0  0  0
 10 11  1  0  0  0  0
 11 12  1  0  0  0  0
 12 13  2  0  0  0  0
 12 14  2  0  0  0  0
 14 15  1  0  0  0  0
 15 16  1  0  0  0  0
 12 17  2  0  0  0  0
 17 18  1  0  0  0  0
 18 19  1  0  0  0  0
  1 20  1  0  0  0  0
  1 21  1  0  0  0  0
  1 22  1  0  0  0  0
  2 23  1  0  0  0  0
  2 24  1  0  0  0  0
  7 25  1  0  0  0  0
  7 26  1  0  0  0  0
  8 27  1  0  0  0  0
  8 28  1  0  0  0  0
  8 29  1  0  0  0  0
 10 30  1  0  0  0  0
 10 31  1  0  0  0  0
 15 32  1  0  0  0  0
 15 33  1  0  0  0  0
 16 34  1  0  0  0  0
 16 35  1  0  0  0  0
 16 36  1  0  0  0  0
 18 37  1  0  0  0  0
 18 38  1  0  0  0  0
 19 39  1  0  0  0  0
 19 40  1  0  0  0  0
 19 41  1  0  0  0  0
M  END
