 xtb: 6.7.1 (edcfbbe)
          04092505213D

 41 40  0     0  0            999 V2000
    4.6454    0.3680   -1.5259 C   0  0  0  0  0  0  0  0  0  0  0  0
    4.5640    0.0720   -0.0416 C   0  0  0  0  0  0  0  0  0  0  0  0
    3.3444   -0.5950    0.3060 O   0  0  0  0  0  0  0  0  0  0  0  0
    1.9242    0.1419    0.2440 P   0  0  0  0  0  0  0  0  0  0  0  0
    2.0222    1.9926    0.8877 S   0  0  0  0  0  0  0  0  0  0  0  0
    1.0438   -0.8837    1.0699 O   0  0  0  0  0  0  0  0  0  0  0  0
    0.8510   -0.7072    2.4871 C   0  0  0  0  0  0  0  0  0  0  0  0
    2.1321   -0.9113    3.2668 C   0  0  0  0  0  0  0  0  0  0  0  0
    1.2740   -0.2238   -1.7498 S   0  0  0  0  0  0  0  0  0  0  0  0
    0.0282   -1.5459   -1.6097 C   0  0  0  0  0  0  0  0  0  0  0  0
   -1.6593   -1.0141   -2.0372 S   0  0  0  0  0  0  0  0  0  0  0  0
   -2.1698   -0.0083   -0.2411 P   0  0  0  0  0  0  0  0  0  0  0  0
   -3.9748    0.7431   -0.2102 S   0  0  0  0  0  0  0  0  0  0  0  0
   -0.9569    1.0076   -0.0194 O   0  0  0  0  0  0  0  0  0  0  0  0
   -1.0202    2.2863   -0.6893 C   0  0  0  0  0  0  0  0  0  0  0  0
   -1.4099    3.3715    0.2917 C   0  0  0  0  0  0  0  0  0  0  0  0
   -1.8151   -1.0032    0.9421 O   0  0  0  0  0  0  0  0  0  0  0  0
   -2.8232   -1.8820    1.4807 C   0  0  0  0  0  0  0  0  0  0  0  0
   -3.1039   -3.0534    0.5603 C   0  0  0  0  0  0  0  0  0  0  0  0
    5.6086    0.8132   -1.7531 H   0  0  0  0  0  0  0  0  0  0  0  0
    4.5221   -0.5442   -2.1034 H   0  0  0  0  0  0  0  0  0  0  0  0
    3.8568    1.0672   -1.8070 H   0  0  0  0  0  0  0  0  0  0  0  0
    4.6287    0.9998    0.5371 H   0  0  0  0  0  0  0  0  0  0  0  0
    5.3464   -0.6185    0.2759 H   0  0  0  0  0  0  0  0  0  0  0  0
    0.4420    0.2936    2.6574 H   0  0  0  0  0  0  0  0  0  0  0  0
    0.0998   -1.4556    2.7415 H   0  0  0  0  0  0  0  0  0  0  0  0
    1.9113   -0.8851    4.3293 H   0  0  0  0  0  0  0  0  0  0  0  0
    2.5794   -1.8684    3.0113 H   0  0  0  0  0  0  0  0  0  0  0  0
    2.8401   -0.1171    3.0342 H   0  0  0  0  0  0  0  0  0  0  0  0
    0.0451   -1.9469   -0.6013 H   0  0  0  0  0  0  0  0  0  0  0  0
    0.2875   -2.2970   -2.3508 H   0  0  0  0  0  0  0  0  0  0  0  0
   -0.0202    2.4618   -1.0929 H   0  0  0  0  0  0  0  0  0  0  0  0
   -1.7379    2.2265   -1.5145 H   0  0  0  0  0  0  0  0  0  0  0  0
   -1.4315    4.3258   -0.2241 H   0  0  0  0  0  0  0  0  0  0  0  0
   -2.3941    3.1643    0.7068 H   0  0  0  0  0  0  0  0  0  0  0  0
   -0.6822    3.4163    1.0980 H   0  0  0  0  0  0  0  0  0  0  0  0
   -2.4111   -2.2093    2.4365 H   0  0  0  0  0  0  0  0  0  0  0  0
   -3.7346   -1.3006    1.6528 H   0  0  0  0  0  0  0  0  0  0  0  0
   -3.8092   -3.7228    1.0425 H   0  0  0  0  0  0  0  0  0  0  0  0
   -3.5379   -2.6981   -0.3735 H   0  0  0  0  0  0  0  0  0  0  0  0
   -2.1885   -3.5967    0.3407 H   0  0  0  0  0  0  0  0  0  0  0  0
  1  2  1  0  0  0  0
  2  3  1  0  0  0  0
  3  4  1  0  0  0  0
  4  5  2  0  0  0  0
  4  6  1  0  0  0  0
  6  7  1  0  0  0  0
  7  8  1  0  0  0  0
  4  9  1  0  0  0  0
  9 10  1  0  0  0  0
 10 11  1  0  0  0  0
 11 12  1  0  0  0  0
 12 13  2  0  0  0  0
 12 14  1  0  0  0  0
 14 15  1  0  0  0  0
 15 16  1  0  0  0  0
 12 17  2  0  0  0  0
 17 18  1  0  0  0  0
 18 19  1  0  0  0  0
  1 20  1  0  0  0  0
  1 21  1  0  0  0  0
  1 22  1  0  0  0  0
  2 23  1  0  0  0  0
  2 24  1  0  0  0  0
  7 25  1  0  0  0  0
  7 26  1  0  0  0  0
  8 27  1  0  0  0  0
  8 28  1  0  0  0  0
  8 29  1  0  0  0  0
 10 30  1  0  0  0  0
 10 31  1  0  0  0  0
 15 32  1  0  0  0  0
 15 33  1  0  0  0  0
 16 34  1  0  0  0  0
 16 35  1  0  0  0  0
 16 36  1  0  0  0  0
 18 37  1  0  0  0  0
 18 38  1  0  0  0  0
 19 39  1  0  0  0  0
 19 40  1  0  0  0  0
 19 41  1  0  0  0  0
M  END
