 xtb: 6.7.1 (edcfbbe)
          04092505213D

 41 40  0     0  0            999 V2000
    5.4517   -0.2132   -0.1304 C   0  0  0  0  0  0  0  0  0  0  0  0
    4.3624    0.2557   -1.0758 C   0  0  0  0  0  0  0  0  0  0  0  0
    3.1591   -0.5216   -0.9054 O   0  0  0  0  0  0  0  0  0  0  0  0
    1.9804   -0.0656    0.0582 P   0  0  0  0  0  0  0  0  0  0  0  0
    2.4602    0.3067    1.9251 S   0  0  0  0  0  0  0  0  0  0  0  0
    0.9308   -1.2387   -0.1489 O   0  0  0  0  0  0  0  0  0  0  0  0
    0.9769   -2.4349    0.6570 C   0  0  0  0  0  0  0  0  0  0  0  0
    2.2303   -3.2443    0.4054 C   0  0  0  0  0  0  0  0  0  0  0  0
    1.1168    1.5010   -1.0431 S   0  0  0  0  0  0  0  0  0  0  0  0
    0.0538    2.1989    0.2579 C   0  0  0  0  0  0  0  0  0  0  0  0
   -0.9850    1.0030    1.1380 S   0  0  0  0  0  0  0  0  0  0  0  0
   -2.0717   -0.0973   -0.3502 P   0  0  0  0  0  0  0  0  0  0  0  0
   -1.4849   -0.2775   -2.2066 S   0  0  0  0  0  0  0  0  0  0  0  0
   -3.5626    0.4656   -0.2288 O   0  0  0  0  0  0  0  0  0  0  0  0
   -4.1158    1.4263   -1.1378 C   0  0  0  0  0  0  0  0  0  0  0  0
   -3.3996    2.7601   -1.0669 C   0  0  0  0  0  0  0  0  0  0  0  0
   -2.1894   -1.5091    0.3438 O   0  0  0  0  0  0  0  0  0  0  0  0
   -2.4003   -1.7883    1.7493 C   0  0  0  0  0  0  0  0  0  0  0  0
   -3.6566   -1.1516    2.3027 C   0  0  0  0  0  0  0  0  0  0  0  0
    6.3577    0.3518   -0.3238 H   0  0  0  0  0  0  0  0  0  0  0  0
    5.1491   -0.0549    0.9025 H   0  0  0  0  0  0  0  0  0  0  0  0
    5.6490   -1.2709   -0.2821 H   0  0  0  0  0  0  0  0  0  0  0  0
    4.6439    0.0968   -2.1185 H   0  0  0  0  0  0  0  0  0  0  0  0
    4.1342    1.3139   -0.9188 H   0  0  0  0  0  0  0  0  0  0  0  0
    0.9131   -2.1402    1.7103 H   0  0  0  0  0  0  0  0  0  0  0  0
    0.0764   -2.9768    0.3636 H   0  0  0  0  0  0  0  0  0  0  0  0
    2.1626   -4.1841    0.9445 H   0  0  0  0  0  0  0  0  0  0  0  0
    2.3423   -3.4407   -0.6579 H   0  0  0  0  0  0  0  0  0  0  0  0
    3.1019   -2.6939    0.7572 H   0  0  0  0  0  0  0  0  0  0  0  0
   -0.5530    2.9623   -0.2226 H   0  0  0  0  0  0  0  0  0  0  0  0
    0.6789    2.6322    1.0389 H   0  0  0  0  0  0  0  0  0  0  0  0
   -4.0613    1.0178   -2.1516 H   0  0  0  0  0  0  0  0  0  0  0  0
   -5.1575    1.5103   -0.8252 H   0  0  0  0  0  0  0  0  0  0  0  0
   -3.9386    3.4927   -1.6591 H   0  0  0  0  0  0  0  0  0  0  0  0
   -3.3403    3.1032   -0.0366 H   0  0  0  0  0  0  0  0  0  0  0  0
   -2.3955    2.6525   -1.4773 H   0  0  0  0  0  0  0  0  0  0  0  0
   -2.4588   -2.8778    1.7778 H   0  0  0  0  0  0  0  0  0  0  0  0
   -1.5203   -1.4509    2.3033 H   0  0  0  0  0  0  0  0  0  0  0  0
   -4.5159   -1.4260    1.6968 H   0  0  0  0  0  0  0  0  0  0  0  0
   -3.8063   -1.4999    3.3201 H   0  0  0  0  0  0  0  0  0  0  0  0
   -3.5592   -0.0686    2.3098 H   0  0  0  0  0  0  0  0  0  0  0  0
  1  2  1  0  0  0  0
  2  3  1  0  0  0  0
  3  4  2  0  0  0  0
  4  5  2  0  0  0  0
  4  6  2  0  0  0  0
  6  7  1  0  0  0  0
  7  8  1  0  0  0  0
  4  9  1  0  0  0  0
  9 10  1  0  0  0  0
 10 11  1  0  0  0  0
 11 12  1  0  0  0  0
 12 13  2  0  0  0  0
 12 14  1  0  0  0  0
 14 15  1  0  0  0  0
 15 16  1  0  0  0  0
 12 17  2  0  0  0  0
 17 18  1  0  0  0  0
 18 19  1  0  0  0  0
  1 20  1  0  0  0  0
  1 21  1  0  0  0  0
  1 22  1  0  0  0  0
  2 23  1  0  0  0  0
  2 24  1  0  0  0  0
  7 25  1  0  0  0  0
  7 26  1  0  0  0  0
  8 27  1  0  0  0  0
  8 28  1  0  0  0  0
  8 29  1  0  0  0  0
 10 30  1  0  0  0  0
 10 31  1  0  0  0  0
 15 32  1  0  0  0  0
 15 33  1  0  0  0  0
 16 34  1  0  0  0  0
 16 35  1  0  0  0  0
 16 36  1  0  0  0  0
 18 37  1  0  0  0  0
 18 38  1  0  0  0  0
 19 39  1  0  0  0  0
 19 40  1  0  0  0  0
 19 41  1  0  0  0  0
M  END
