 xtb: 6.7.1 (edcfbbe)
          04092505213D

 41 40  0     0  0            999 V2000
    4.9998   -2.6783   -1.2823 C   0  0  0  0  0  0  0  0  0  0  0  0
    4.0807   -1.4886   -1.4739 C   0  0  0  0  0  0  0  0  0  0  0  0
    3.0544   -1.5547   -0.4637 O   0  0  0  0  0  0  0  0  0  0  0  0
    2.2144   -0.2793   -0.0353 P   0  0  0  0  0  0  0  0  0  0  0  0
    3.2581    1.3454    0.3239 S   0  0  0  0  0  0  0  0  0  0  0  0
    1.3563   -0.8450    1.1646 O   0  0  0  0  0  0  0  0  0  0  0  0
    1.7671   -0.6741    2.5389 C   0  0  0  0  0  0  0  0  0  0  0  0
    3.0047   -1.4867    2.8524 C   0  0  0  0  0  0  0  0  0  0  0  0
    0.7623   -0.1178   -1.5683 S   0  0  0  0  0  0  0  0  0  0  0  0
    0.1782    1.5312   -1.0969 C   0  0  0  0  0  0  0  0  0  0  0  0
   -0.7786    1.5168    0.4359 S   0  0  0  0  0  0  0  0  0  0  0  0
   -2.4690    0.4862   -0.3715 P   0  0  0  0  0  0  0  0  0  0  0  0
   -2.9480    1.0002   -2.1946 S   0  0  0  0  0  0  0  0  0  0  0  0
   -3.5744    0.7284    0.7425 O   0  0  0  0  0  0  0  0  0  0  0  0
   -4.1946    2.0208    0.9162 C   0  0  0  0  0  0  0  0  0  0  0  0
   -5.4155    1.8324    1.7932 C   0  0  0  0  0  0  0  0  0  0  0  0
   -2.1956   -1.0552   -0.2344 O   0  0  0  0  0  0  0  0  0  0  0  0
   -1.9503   -1.7104    1.0378 C   0  0  0  0  0  0  0  0  0  0  0  0
   -1.1941   -2.9919    0.7584 C   0  0  0  0  0  0  0  0  0  0  0  0
    5.4784   -2.6302   -0.3083 H   0  0  0  0  0  0  0  0  0  0  0  0
    4.4297   -3.6001   -1.3502 H   0  0  0  0  0  0  0  0  0  0  0  0
    5.7608   -2.6678   -2.0556 H   0  0  0  0  0  0  0  0  0  0  0  0
    3.5962   -1.5108   -2.4537 H   0  0  0  0  0  0  0  0  0  0  0  0
    4.6202   -0.5417   -1.3633 H   0  0  0  0  0  0  0  0  0  0  0  0
    1.9438    0.3911    2.7181 H   0  0  0  0  0  0  0  0  0  0  0  0
    0.9042   -1.0090    3.1157 H   0  0  0  0  0  0  0  0  0  0  0  0
    2.8449   -2.5305    2.5962 H   0  0  0  0  0  0  0  0  0  0  0  0
    3.8480   -1.1074    2.2763 H   0  0  0  0  0  0  0  0  0  0  0  0
    3.2340   -1.4024    3.9100 H   0  0  0  0  0  0  0  0  0  0  0  0
   -0.4534    1.8875   -1.9112 H   0  0  0  0  0  0  0  0  0  0  0  0
    1.0334    2.1878   -0.9344 H   0  0  0  0  0  0  0  0  0  0  0  0
   -3.4648    2.6890    1.3813 H   0  0  0  0  0  0  0  0  0  0  0  0
   -4.4620    2.4127   -0.0703 H   0  0  0  0  0  0  0  0  0  0  0  0
   -6.1149    1.1512    1.3169 H   0  0  0  0  0  0  0  0  0  0  0  0
   -5.1225    1.4224    2.7552 H   0  0  0  0  0  0  0  0  0  0  0  0
   -5.8968    2.7930    1.9430 H   0  0  0  0  0  0  0  0  0  0  0  0
   -1.3742   -1.0317    1.6735 H   0  0  0  0  0  0  0  0  0  0  0  0
   -2.9204   -1.9037    1.4988 H   0  0  0  0  0  0  0  0  0  0  0  0
   -0.2223   -2.7680    0.3250 H   0  0  0  0  0  0  0  0  0  0  0  0
   -1.0560   -3.5348    1.6880 H   0  0  0  0  0  0  0  0  0  0  0  0
   -1.7544   -3.6068    0.0599 H   0  0  0  0  0  0  0  0  0  0  0  0
  1  2  1  0  0  0  0
  2  3  1  0  0  0  0
  3  4  2  0  0  0  0
  4  5  2  0  0  0  0
  4  6  2  0  0  0  0
  6  7  1  0  0  0  0
  7  8  1  0  0  0  0
  4  9  1  0  0  0  0
  9 10  1  0  0  0  0
 10 11  1  0  0  0  0
 11 12  1  0  0  0  0
 12 13  2  0  0  0  0
 12 14  2  0  0  0  0
 14 15  1  0  0  0  0
 15 16  1  0  0  0  0
 12 17  2  0  0  0  0
 17 18  1  0  0  0  0
 18 19  1  0  0  0  0
  1 20  1  0  0  0  0
  1 21  1  0  0  0  0
  1 22  1  0  0  0  0
  2 23  1  0  0  0  0
  2 24  1  0  0  0  0
  7 25  1  0  0  0  0
  7 26  1  0  0  0  0
  8 27  1  0  0  0  0
  8 28  1  0  0  0  0
  8 29  1  0  0  0  0
 10 30  1  0  0  0  0
 10 31  1  0  0  0  0
 15 32  1  0  0  0  0
 15 33  1  0  0  0  0
 16 34  1  0  0  0  0
 16 35  1  0  0  0  0
 16 36  1  0  0  0  0
 18 37  1  0  0  0  0
 18 38  1  0  0  0  0
 19 39  1  0  0  0  0
 19 40  1  0  0  0  0
 19 41  1  0  0  0  0
M  END
