 xtb: 6.7.1 (edcfbbe)
          04092505213D

 41 40  0     0  0            999 V2000
    3.0854    1.8963    2.7324 C   0  0  0  0  0  0  0  0  0  0  0  0
    1.7754    1.1663    2.5256 C   0  0  0  0  0  0  0  0  0  0  0  0
    1.4867    1.0039    1.1232 O   0  0  0  0  0  0  0  0  0  0  0  0
    2.3055    0.0048    0.2051 P   0  0  0  0  0  0  0  0  0  0  0  0
    3.0227   -1.5551    1.1626 S   0  0  0  0  0  0  0  0  0  0  0  0
    3.3391    1.0042   -0.4678 O   0  0  0  0  0  0  0  0  0  0  0  0
    4.0439    0.7825   -1.7028 C   0  0  0  0  0  0  0  0  0  0  0  0
    4.7314   -0.5659   -1.7587 C   0  0  0  0  0  0  0  0  0  0  0  0
    0.9180   -0.3973   -1.3459 S   0  0  0  0  0  0  0  0  0  0  0  0
    0.1071   -1.7835   -0.5147 C   0  0  0  0  0  0  0  0  0  0  0  0
   -0.9434   -1.2638    0.8696 S   0  0  0  0  0  0  0  0  0  0  0  0
   -2.4231   -0.3271   -0.3299 P   0  0  0  0  0  0  0  0  0  0  0  0
   -2.8269   -1.1516   -2.0507 S   0  0  0  0  0  0  0  0  0  0  0  0
   -1.9609    1.1817   -0.5103 O   0  0  0  0  0  0  0  0  0  0  0  0
   -1.7586    2.0656    0.6175 C   0  0  0  0  0  0  0  0  0  0  0  0
   -0.8601    3.1976    0.1654 C   0  0  0  0  0  0  0  0  0  0  0  0
   -3.5902   -0.3089    0.7573 O   0  0  0  0  0  0  0  0  0  0  0  0
   -4.9756   -0.4788    0.3963 C   0  0  0  0  0  0  0  0  0  0  0  0
   -5.5477    0.7970   -0.1889 C   0  0  0  0  0  0  0  0  0  0  0  0
    3.0695    2.8525    2.2166 H   0  0  0  0  0  0  0  0  0  0  0  0
    3.2483    2.0568    3.7934 H   0  0  0  0  0  0  0  0  0  0  0  0
    3.9029    1.2966    2.3333 H   0  0  0  0  0  0  0  0  0  0  0  0
    0.9276    1.7351    2.9094 H   0  0  0  0  0  0  0  0  0  0  0  0
    1.8018    0.1772    2.9945 H   0  0  0  0  0  0  0  0  0  0  0  0
    3.3286    0.8855   -2.5237 H   0  0  0  0  0  0  0  0  0  0  0  0
    4.7663    1.6001   -1.7360 H   0  0  0  0  0  0  0  0  0  0  0  0
    5.3859   -0.6958   -0.8999 H   0  0  0  0  0  0  0  0  0  0  0  0
    3.9916   -1.3656   -1.7529 H   0  0  0  0  0  0  0  0  0  0  0  0
    5.3169   -0.6345   -2.6699 H   0  0  0  0  0  0  0  0  0  0  0  0
    0.8633   -2.4510   -0.0995 H   0  0  0  0  0  0  0  0  0  0  0  0
   -0.5036   -2.2869   -1.2640 H   0  0  0  0  0  0  0  0  0  0  0  0
   -2.7376    2.4317    0.9348 H   0  0  0  0  0  0  0  0  0  0  0  0
   -1.3089    1.4931    1.4351 H   0  0  0  0  0  0  0  0  0  0  0  0
   -0.7508    3.9121    0.9750 H   0  0  0  0  0  0  0  0  0  0  0  0
    0.1186    2.8120   -0.1088 H   0  0  0  0  0  0  0  0  0  0  0  0
   -1.2960    3.6921   -0.6979 H   0  0  0  0  0  0  0  0  0  0  0  0
   -5.0537   -1.2998   -0.3226 H   0  0  0  0  0  0  0  0  0  0  0  0
   -5.4644   -0.7550    1.3313 H   0  0  0  0  0  0  0  0  0  0  0  0
   -6.5926    0.6422   -0.4383 H   0  0  0  0  0  0  0  0  0  0  0  0
   -5.4664    1.6133    0.5240 H   0  0  0  0  0  0  0  0  0  0  0  0
   -5.0027    1.0600   -1.0955 H   0  0  0  0  0  0  0  0  0  0  0  0
  1  2  1  0  0  0  0
  2  3  1  0  0  0  0
  3  4  2  0  0  0  0
  4  5  2  0  0  0  0
  4  6  2  0  0  0  0
  6  7  1  0  0  0  0
  7  8  1  0  0  0  0
  4  9  1  0  0  0  0
  9 10  1  0  0  0  0
 10 11  1  0  0  0  0
 11 12  1  0  0  0  0
 12 13  2  0  0  0  0
 12 14  2  0  0  0  0
 14 15  1  0  0  0  0
 15 16  1  0  0  0  0
 12 17  1  0  0  0  0
 17 18  1  0  0  0  0
 18 19  1  0  0  0  0
  1 20  1  0  0  0  0
  1 21  1  0  0  0  0
  1 22  1  0  0  0  0
  2 23  1  0  0  0  0
  2 24  1  0  0  0  0
  7 25  1  0  0  0  0
  7 26  1  0  0  0  0
  8 27  1  0  0  0  0
  8 28  1  0  0  0  0
  8 29  1  0  0  0  0
 10 30  1  0  0  0  0
 10 31  1  0  0  0  0
 15 32  1  0  0  0  0
 15 33  1  0  0  0  0
 16 34  1  0  0  0  0
 16 35  1  0  0  0  0
 16 36  1  0  0  0  0
 18 37  1  0  0  0  0
 18 38  1  0  0  0  0
 19 39  1  0  0  0  0
 19 40  1  0  0  0  0
 19 41  1  0  0  0  0
M  END
