 xtb: 6.7.1 (edcfbbe)
          04092505213D

 41 40  0     0  0            999 V2000
    3.5918    1.2978    2.6786 C   0  0  0  0  0  0  0  0  0  0  0  0
    2.3767    1.6083    1.8299 C   0  0  0  0  0  0  0  0  0  0  0  0
    2.4423    0.9565    0.5452 O   0  0  0  0  0  0  0  0  0  0  0  0
    2.2765   -0.6065    0.3722 P   0  0  0  0  0  0  0  0  0  0  0  0
    1.0733   -1.4988    1.6415 S   0  0  0  0  0  0  0  0  0  0  0  0
    3.7849   -1.1019    0.4133 O   0  0  0  0  0  0  0  0  0  0  0  0
    4.1482   -2.4834    0.5779 C   0  0  0  0  0  0  0  0  0  0  0  0
    3.7704   -3.3221   -0.6260 C   0  0  0  0  0  0  0  0  0  0  0  0
    1.7425   -0.6760   -1.6723 S   0  0  0  0  0  0  0  0  0  0  0  0
   -0.0367   -0.5827   -1.4102 C   0  0  0  0  0  0  0  0  0  0  0  0
   -0.5217    1.0335   -0.7129 S   0  0  0  0  0  0  0  0  0  0  0  0
   -2.5886    0.5277   -0.5825 P   0  0  0  0  0  0  0  0  0  0  0  0
   -3.3187   -0.4367   -2.1157 S   0  0  0  0  0  0  0  0  0  0  0  0
   -3.2997    1.8942   -0.1920 O   0  0  0  0  0  0  0  0  0  0  0  0
   -3.7737    2.8292   -1.1809 C   0  0  0  0  0  0  0  0  0  0  0  0
   -2.6435    3.4326   -1.9884 C   0  0  0  0  0  0  0  0  0  0  0  0
   -2.7155   -0.3086    0.7486 O   0  0  0  0  0  0  0  0  0  0  0  0
   -2.4056    0.2448    2.0532 C   0  0  0  0  0  0  0  0  0  0  0  0
   -2.3536   -0.9007    3.0410 C   0  0  0  0  0  0  0  0  0  0  0  0
    4.5006    1.5324    2.1311 H   0  0  0  0  0  0  0  0  0  0  0  0
    3.5550    1.8859    3.5902 H   0  0  0  0  0  0  0  0  0  0  0  0
    3.6015    0.2400    2.9391 H   0  0  0  0  0  0  0  0  0  0  0  0
    2.3114    2.6680    1.5807 H   0  0  0  0  0  0  0  0  0  0  0  0
    1.4597    1.2878    2.3353 H   0  0  0  0  0  0  0  0  0  0  0  0
    5.2287   -2.4536    0.7244 H   0  0  0  0  0  0  0  0  0  0  0  0
    3.6602   -2.8650    1.4808 H   0  0  0  0  0  0  0  0  0  0  0  0
    4.1740   -4.3227   -0.5083 H   0  0  0  0  0  0  0  0  0  0  0  0
    2.6864   -3.3874   -0.7126 H   0  0  0  0  0  0  0  0  0  0  0  0
    4.1654   -2.8766   -1.5356 H   0  0  0  0  0  0  0  0  0  0  0  0
   -0.3426   -1.3670   -0.7141 H   0  0  0  0  0  0  0  0  0  0  0  0
   -0.5175   -0.7131   -2.3787 H   0  0  0  0  0  0  0  0  0  0  0  0
   -4.4793    2.3087   -1.8352 H   0  0  0  0  0  0  0  0  0  0  0  0
   -4.2974    3.5832   -0.5915 H   0  0  0  0  0  0  0  0  0  0  0  0
   -1.8859    3.8491   -1.3292 H   0  0  0  0  0  0  0  0  0  0  0  0
   -2.1838    2.6686   -2.6137 H   0  0  0  0  0  0  0  0  0  0  0  0
   -3.0382    4.2168   -2.6264 H   0  0  0  0  0  0  0  0  0  0  0  0
   -1.4439    0.7629    1.9899 H   0  0  0  0  0  0  0  0  0  0  0  0
   -3.1870    0.9636    2.3059 H   0  0  0  0  0  0  0  0  0  0  0  0
   -3.2853   -1.4578    3.0124 H   0  0  0  0  0  0  0  0  0  0  0  0
   -1.5336   -1.5717    2.7955 H   0  0  0  0  0  0  0  0  0  0  0  0
   -2.1987   -0.5030    4.0386 H   0  0  0  0  0  0  0  0  0  0  0  0
  1  2  1  0  0  0  0
  2  3  1  0  0  0  0
  3  4  2  0  0  0  0
  4  5  2  0  0  0  0
  4  6  2  0  0  0  0
  6  7  1  0  0  0  0
  7  8  1  0  0  0  0
  4  9  1  0  0  0  0
  9 10  1  0  0  0  0
 10 11  1  0  0  0  0
 11 12  1  0  0  0  0
 12 13  2  0  0  0  0
 12 14  2  0  0  0  0
 14 15  1  0  0  0  0
 15 16  1  0  0  0  0
 12 17  2  0  0  0  0
 17 18  1  0  0  0  0
 18 19  1  0  0  0  0
  1 20  1  0  0  0  0
  1 21  1  0  0  0  0
  1 22  1  0  0  0  0
  2 23  1  0  0  0  0
  2 24  1  0  0  0  0
  7 25  1  0  0  0  0
  7 26  1  0  0  0  0
  8 27  1  0  0  0  0
  8 28  1  0  0  0  0
  8 29  1  0  0  0  0
 10 30  1  0  0  0  0
 10 31  1  0  0  0  0
 15 32  1  0  0  0  0
 15 33  1  0  0  0  0
 16 34  1  0  0  0  0
 16 35  1  0  0  0  0
 16 36  1  0  0  0  0
 18 37  1  0  0  0  0
 18 38  1  0  0  0  0
 19 39  1  0  0  0  0
 19 40  1  0  0  0  0
 19 41  1  0  0  0  0
M  END
