 xtb: 6.7.1 (edcfbbe)
          04092505203D

 41 40  0     0  0            999 V2000
    4.4050   -1.5966   -1.5565 C   0  0  0  0  0  0  0  0  0  0  0  0
    4.7122   -0.3669   -0.7264 C   0  0  0  0  0  0  0  0  0  0  0  0
    3.6844   -0.0975    0.2419 O   0  0  0  0  0  0  0  0  0  0  0  0
    2.2109    0.3472   -0.1733 P   0  0  0  0  0  0  0  0  0  0  0  0
    2.1738    1.5817   -1.7027 S   0  0  0  0  0  0  0  0  0  0  0  0
    1.6811    0.8802    1.2223 O   0  0  0  0  0  0  0  0  0  0  0  0
    2.0726    2.1767    1.7231 C   0  0  0  0  0  0  0  0  0  0  0  0
    1.1822    2.5058    2.9026 C   0  0  0  0  0  0  0  0  0  0  0  0
    1.1293   -1.4431   -0.3043 S   0  0  0  0  0  0  0  0  0  0  0  0
   -0.0496   -1.0284   -1.6465 C   0  0  0  0  0  0  0  0  0  0  0  0
   -1.7480   -1.4577   -1.2342 S   0  0  0  0  0  0  0  0  0  0  0  0
   -2.2746    0.1930    0.0129 P   0  0  0  0  0  0  0  0  0  0  0  0
   -1.1148    1.7667   -0.1348 S   0  0  0  0  0  0  0  0  0  0  0  0
   -2.4503   -0.3531    1.4975 O   0  0  0  0  0  0  0  0  0  0  0  0
   -1.3616   -0.7108    2.3658 C   0  0  0  0  0  0  0  0  0  0  0  0
   -1.1722   -2.2157    2.3951 C   0  0  0  0  0  0  0  0  0  0  0  0
   -3.7538    0.5429   -0.3772 O   0  0  0  0  0  0  0  0  0  0  0  0
   -4.7908   -0.3944   -0.7662 C   0  0  0  0  0  0  0  0  0  0  0  0
   -4.9675   -1.5251    0.2227 C   0  0  0  0  0  0  0  0  0  0  0  0
    4.1844   -2.4434   -0.9116 H   0  0  0  0  0  0  0  0  0  0  0  0
    3.5439   -1.4038   -2.1954 H   0  0  0  0  0  0  0  0  0  0  0  0
    5.2605   -1.8301   -2.1819 H   0  0  0  0  0  0  0  0  0  0  0  0
    4.8184    0.5132   -1.3687 H   0  0  0  0  0  0  0  0  0  0  0  0
    5.6111   -0.4997   -0.1229 H   0  0  0  0  0  0  0  0  0  0  0  0
    3.1259    2.1268    2.0109 H   0  0  0  0  0  0  0  0  0  0  0  0
    1.9514    2.9081    0.9164 H   0  0  0  0  0  0  0  0  0  0  0  0
    0.1463    2.5568    2.5762 H   0  0  0  0  0  0  0  0  0  0  0  0
    1.2789    1.7399    3.6666 H   0  0  0  0  0  0  0  0  0  0  0  0
    1.4744    3.4673    3.3116 H   0  0  0  0  0  0  0  0  0  0  0  0
    0.2040   -1.6242   -2.5193 H   0  0  0  0  0  0  0  0  0  0  0  0
    0.0294    0.0413   -1.8570 H   0  0  0  0  0  0  0  0  0  0  0  0
   -0.4504   -0.1973    2.0420 H   0  0  0  0  0  0  0  0  0  0  0  0
   -1.6527   -0.3313    3.3475 H   0  0  0  0  0  0  0  0  0  0  0  0
   -2.0984   -2.6994    2.6914 H   0  0  0  0  0  0  0  0  0  0  0  0
   -0.8732   -2.5873    1.4177 H   0  0  0  0  0  0  0  0  0  0  0  0
   -0.3940   -2.4591    3.1111 H   0  0  0  0  0  0  0  0  0  0  0  0
   -5.6798    0.2353   -0.8248 H   0  0  0  0  0  0  0  0  0  0  0  0
   -4.5412   -0.7790   -1.7580 H   0  0  0  0  0  0  0  0  0  0  0  0
   -4.0826   -2.1584    0.2304 H   0  0  0  0  0  0  0  0  0  0  0  0
   -5.1314   -1.1297    1.2217 H   0  0  0  0  0  0  0  0  0  0  0  0
   -5.8245   -2.1218   -0.0738 H   0  0  0  0  0  0  0  0  0  0  0  0
  1  2  1  0  0  0  0
  2  3  1  0  0  0  0
  3  4  2  0  0  0  0
  4  5  2  0  0  0  0
  4  6  2  0  0  0  0
  6  7  1  0  0  0  0
  7  8  1  0  0  0  0
  4  9  1  0  0  0  0
  9 10  1  0  0  0  0
 10 11  1  0  0  0  0
 11 12  1  0  0  0  0
 12 13  2  0  0  0  0
 12 14  2  0  0  0  0
 14 15  1  0  0  0  0
 15 16  1  0  0  0  0
 12 17  2  0  0  0  0
 17 18  1  0  0  0  0
 18 19  1  0  0  0  0
  1 20  1  0  0  0  0
  1 21  1  0  0  0  0
  1 22  1  0  0  0  0
  2 23  1  0  0  0  0
  2 24  1  0  0  0  0
  7 25  1  0  0  0  0
  7 26  1  0  0  0  0
  8 27  1  0  0  0  0
  8 28  1  0  0  0  0
  8 29  1  0  0  0  0
 10 30  1  0  0  0  0
 10 31  1  0  0  0  0
 15 32  1  0  0  0  0
 15 33  1  0  0  0  0
 16 34  1  0  0  0  0
 16 35  1  0  0  0  0
 16 36  1  0  0  0  0
 18 37  1  0  0  0  0
 18 38  1  0  0  0  0
 19 39  1  0  0  0  0
 19 40  1  0  0  0  0
 19 41  1  0  0  0  0
M  END
