 xtb: 6.7.1 (edcfbbe)
          04092505203D

 41 40  0     0  0            999 V2000
    4.6117    0.8211   -1.6244 C   0  0  0  0  0  0  0  0  0  0  0  0
    4.7757    0.0345   -0.3403 C   0  0  0  0  0  0  0  0  0  0  0  0
    3.5816   -0.6818    0.0253 O   0  0  0  0  0  0  0  0  0  0  0  0
    2.2308    0.0571    0.4224 P   0  0  0  0  0  0  0  0  0  0  0  0
    2.4343    1.6780    1.4914 S   0  0  0  0  0  0  0  0  0  0  0  0
    1.4367   -1.0736    1.1871 O   0  0  0  0  0  0  0  0  0  0  0  0
    1.3268   -2.4339    0.7010 C   0  0  0  0  0  0  0  0  0  0  0  0
    2.3384   -3.3277    1.3861 C   0  0  0  0  0  0  0  0  0  0  0  0
    1.2268    0.2740   -1.4501 S   0  0  0  0  0  0  0  0  0  0  0  0
    0.0779    1.5751   -0.9169 C   0  0  0  0  0  0  0  0  0  0  0  0
   -0.9301    1.1318    0.5194 S   0  0  0  0  0  0  0  0  0  0  0  0
   -2.3279   -0.1380   -0.4902 P   0  0  0  0  0  0  0  0  0  0  0  0
   -1.6328   -1.8250   -1.1979 S   0  0  0  0  0  0  0  0  0  0  0  0
   -2.9558    0.7555   -1.6306 O   0  0  0  0  0  0  0  0  0  0  0  0
   -4.0522    1.6912   -1.4724 C   0  0  0  0  0  0  0  0  0  0  0  0
   -3.7105    2.8527   -0.5631 C   0  0  0  0  0  0  0  0  0  0  0  0
   -3.5173   -0.2927    0.5515 O   0  0  0  0  0  0  0  0  0  0  0  0
   -3.5252   -1.3369    1.5400 C   0  0  0  0  0  0  0  0  0  0  0  0
   -2.5152   -1.0817    2.6404 C   0  0  0  0  0  0  0  0  0  0  0  0
    4.2328    0.1803   -2.4170 H   0  0  0  0  0  0  0  0  0  0  0  0
    3.9127    1.6419   -1.4710 H   0  0  0  0  0  0  0  0  0  0  0  0
    5.5734    1.2292   -1.9184 H   0  0  0  0  0  0  0  0  0  0  0  0
    5.0414    0.7006    0.4863 H   0  0  0  0  0  0  0  0  0  0  0  0
    5.5268   -0.7503   -0.4431 H   0  0  0  0  0  0  0  0  0  0  0  0
    0.3034   -2.7350    0.9352 H   0  0  0  0  0  0  0  0  0  0  0  0
    1.4538   -2.4393   -0.3852 H   0  0  0  0  0  0  0  0  0  0  0  0
    2.2180   -3.2642    2.4641 H   0  0  0  0  0  0  0  0  0  0  0  0
    2.1769   -4.3517    1.0646 H   0  0  0  0  0  0  0  0  0  0  0  0
    3.3484   -3.0232    1.1254 H   0  0  0  0  0  0  0  0  0  0  0  0
   -0.5603    1.7882   -1.7719 H   0  0  0  0  0  0  0  0  0  0  0  0
    0.6502    2.4514   -0.6146 H   0  0  0  0  0  0  0  0  0  0  0  0
   -4.2416    2.0221   -2.4949 H   0  0  0  0  0  0  0  0  0  0  0  0
   -4.9151    1.1418   -1.0928 H   0  0  0  0  0  0  0  0  0  0  0  0
   -4.5436    3.5489   -0.5571 H   0  0  0  0  0  0  0  0  0  0  0  0
   -3.5363    2.5019    0.4516 H   0  0  0  0  0  0  0  0  0  0  0  0
   -2.8204    3.3690   -0.9137 H   0  0  0  0  0  0  0  0  0  0  0  0
   -4.5464   -1.3286    1.9236 H   0  0  0  0  0  0  0  0  0  0  0  0
   -3.3216   -2.2892    1.0392 H   0  0  0  0  0  0  0  0  0  0  0  0
   -2.6142   -1.8459    3.4046 H   0  0  0  0  0  0  0  0  0  0  0  0
   -1.5024   -1.1136    2.2391 H   0  0  0  0  0  0  0  0  0  0  0  0
   -2.6765   -0.1033    3.0858 H   0  0  0  0  0  0  0  0  0  0  0  0
  1  2  1  0  0  0  0
  2  3  1  0  0  0  0
  3  4  2  0  0  0  0
  4  5  2  0  0  0  0
  4  6  2  0  0  0  0
  6  7  1  0  0  0  0
  7  8  1  0  0  0  0
  4  9  1  0  0  0  0
  9 10  1  0  0  0  0
 10 11  1  0  0  0  0
 11 12  1  0  0  0  0
 12 13  2  0  0  0  0
 12 14  2  0  0  0  0
 14 15  1  0  0  0  0
 15 16  1  0  0  0  0
 12 17  2  0  0  0  0
 17 18  1  0  0  0  0
 18 19  1  0  0  0  0
  1 20  1  0  0  0  0
  1 21  1  0  0  0  0
  1 22  1  0  0  0  0
  2 23  1  0  0  0  0
  2 24  1  0  0  0  0
  7 25  1  0  0  0  0
  7 26  1  0  0  0  0
  8 27  1  0  0  0  0
  8 28  1  0  0  0  0
  8 29  1  0  0  0  0
 10 30  1  0  0  0  0
 10 31  1  0  0  0  0
 15 32  1  0  0  0  0
 15 33  1  0  0  0  0
 16 34  1  0  0  0  0
 16 35  1  0  0  0  0
 16 36  1  0  0  0  0
 18 37  1  0  0  0  0
 18 38  1  0  0  0  0
 19 39  1  0  0  0  0
 19 40  1  0  0  0  0
 19 41  1  0  0  0  0
M  END
