 xtb: 6.7.1 (edcfbbe)
          04092505213D

 41 40  0     0  0            999 V2000
    3.2046    2.2830    2.2610 C   0  0  0  0  0  0  0  0  0  0  0  0
    1.8993    1.7127    1.7452 C   0  0  0  0  0  0  0  0  0  0  0  0
    1.8960    0.2652    1.7983 O   0  0  0  0  0  0  0  0  0  0  0  0
    2.3787   -0.6764    0.6297 P   0  0  0  0  0  0  0  0  0  0  0  0
    2.1857   -2.5633    1.1026 S   0  0  0  0  0  0  0  0  0  0  0  0
    3.8643   -0.1795    0.3568 O   0  0  0  0  0  0  0  0  0  0  0  0
    4.8289   -0.9786   -0.3510 C   0  0  0  0  0  0  0  0  0  0  0  0
    4.4589   -1.1776   -1.8065 C   0  0  0  0  0  0  0  0  0  0  0  0
    1.2949   -0.0240   -1.0934 S   0  0  0  0  0  0  0  0  0  0  0  0
   -0.1344   -1.1014   -0.8417 C   0  0  0  0  0  0  0  0  0  0  0  0
   -1.2207   -0.5363    0.4894 S   0  0  0  0  0  0  0  0  0  0  0  0
   -2.7216    0.4516   -0.6897 P   0  0  0  0  0  0  0  0  0  0  0  0
   -2.5173    0.3403   -2.6303 S   0  0  0  0  0  0  0  0  0  0  0  0
   -2.8340    1.8944   -0.0229 O   0  0  0  0  0  0  0  0  0  0  0  0
   -1.7323    2.7850    0.2227 C   0  0  0  0  0  0  0  0  0  0  0  0
   -0.9721    3.1426   -1.0378 C   0  0  0  0  0  0  0  0  0  0  0  0
   -4.1053   -0.1725   -0.2750 O   0  0  0  0  0  0  0  0  0  0  0  0
   -4.5709   -0.3020    1.0920 C   0  0  0  0  0  0  0  0  0  0  0  0
   -4.5078   -1.7521    1.5295 C   0  0  0  0  0  0  0  0  0  0  0  0
    4.0259    2.0019    1.6080 H   0  0  0  0  0  0  0  0  0  0  0  0
    3.1277    3.3654    2.2943 H   0  0  0  0  0  0  0  0  0  0  0  0
    3.4061    1.9069    3.2603 H   0  0  0  0  0  0  0  0  0  0  0  0
    1.7114    2.0288    0.7149 H   0  0  0  0  0  0  0  0  0  0  0  0
    1.0634    2.0011    2.3856 H   0  0  0  0  0  0  0  0  0  0  0  0
    5.7586   -0.4175   -0.2462 H   0  0  0  0  0  0  0  0  0  0  0  0
    4.9173   -1.9430    0.1586 H   0  0  0  0  0  0  0  0  0  0  0  0
    4.2501   -0.2214   -2.2799 H   0  0  0  0  0  0  0  0  0  0  0  0
    5.2818   -1.6627   -2.3216 H   0  0  0  0  0  0  0  0  0  0  0  0
    3.5756   -1.8095   -1.8854 H   0  0  0  0  0  0  0  0  0  0  0  0
    0.2191   -2.0965   -0.5703 H   0  0  0  0  0  0  0  0  0  0  0  0
   -0.6944   -1.1098   -1.7792 H   0  0  0  0  0  0  0  0  0  0  0  0
   -2.2073    3.6630    0.6641 H   0  0  0  0  0  0  0  0  0  0  0  0
   -1.0700    2.3144    0.9557 H   0  0  0  0  0  0  0  0  0  0  0  0
   -0.2285    3.8991   -0.8082 H   0  0  0  0  0  0  0  0  0  0  0  0
   -0.4718    2.2650   -1.4464 H   0  0  0  0  0  0  0  0  0  0  0  0
   -1.6540    3.5265   -1.7926 H   0  0  0  0  0  0  0  0  0  0  0  0
   -3.9691    0.3373    1.7409 H   0  0  0  0  0  0  0  0  0  0  0  0
   -5.5999    0.0606    1.0705 H   0  0  0  0  0  0  0  0  0  0  0  0
   -3.4767   -2.0951    1.5730 H   0  0  0  0  0  0  0  0  0  0  0  0
   -4.9530   -1.8458    2.5149 H   0  0  0  0  0  0  0  0  0  0  0  0
   -5.0555   -2.3751    0.8279 H   0  0  0  0  0  0  0  0  0  0  0  0
  1  2  1  0  0  0  0
  2  3  1  0  0  0  0
  3  4  2  0  0  0  0
  4  5  2  0  0  0  0
  4  6  2  0  0  0  0
  6  7  1  0  0  0  0
  7  8  1  0  0  0  0
  4  9  1  0  0  0  0
  9 10  1  0  0  0  0
 10 11  1  0  0  0  0
 11 12  1  0  0  0  0
 12 13  2  0  0  0  0
 12 14  2  0  0  0  0
 14 15  1  0  0  0  0
 15 16  1  0  0  0  0
 12 17  2  0  0  0  0
 17 18  1  0  0  0  0
 18 19  1  0  0  0  0
  1 20  1  0  0  0  0
  1 21  1  0  0  0  0
  1 22  1  0  0  0  0
  2 23  1  0  0  0  0
  2 24  1  0  0  0  0
  7 25  1  0  0  0  0
  7 26  1  0  0  0  0
  8 27  1  0  0  0  0
  8 28  1  0  0  0  0
  8 29  1  0  0  0  0
 10 30  1  0  0  0  0
 10 31  1  0  0  0  0
 15 32  1  0  0  0  0
 15 33  1  0  0  0  0
 16 34  1  0  0  0  0
 16 35  1  0  0  0  0
 16 36  1  0  0  0  0
 18 37  1  0  0  0  0
 18 38  1  0  0  0  0
 19 39  1  0  0  0  0
 19 40  1  0  0  0  0
 19 41  1  0  0  0  0
M  END
