 xtb: 6.7.1 (edcfbbe)
          04092505203D

 41 40  0     0  0            999 V2000
    4.4425   -1.6609    1.2185 C   0  0  0  0  0  0  0  0  0  0  0  0
    4.0096   -0.2095    1.1591 C   0  0  0  0  0  0  0  0  0  0  0  0
    3.5656    0.1392   -0.1764 O   0  0  0  0  0  0  0  0  0  0  0  0
    2.0367    0.3006   -0.5740 P   0  0  0  0  0  0  0  0  0  0  0  0
    1.8775    0.8820   -2.4308 S   0  0  0  0  0  0  0  0  0  0  0  0
    1.3871    1.2475    0.5428 O   0  0  0  0  0  0  0  0  0  0  0  0
    1.3484    2.6757    0.3884 C   0  0  0  0  0  0  0  0  0  0  0  0
    2.7222    3.2957    0.5373 C   0  0  0  0  0  0  0  0  0  0  0  0
    1.1846   -1.5483   -0.0519 S   0  0  0  0  0  0  0  0  0  0  0  0
   -0.1497   -1.6648   -1.2917 C   0  0  0  0  0  0  0  0  0  0  0  0
   -1.7677   -1.9183   -0.5483 S   0  0  0  0  0  0  0  0  0  0  0  0
   -2.0115    0.0469    0.2381 P   0  0  0  0  0  0  0  0  0  0  0  0
   -1.5377    1.4634   -1.0350 S   0  0  0  0  0  0  0  0  0  0  0  0
   -1.1463    0.2161    1.5438 O   0  0  0  0  0  0  0  0  0  0  0  0
   -1.4189   -0.3651    2.8445 C   0  0  0  0  0  0  0  0  0  0  0  0
   -1.3204   -1.8766    2.8481 C   0  0  0  0  0  0  0  0  0  0  0  0
   -3.4846    0.0271    0.8268 O   0  0  0  0  0  0  0  0  0  0  0  0
   -4.6445   -0.4782    0.1392 C   0  0  0  0  0  0  0  0  0  0  0  0
   -4.8839    0.2095   -1.1881 C   0  0  0  0  0  0  0  0  0  0  0  0
    3.5949   -2.3214    1.0522 H   0  0  0  0  0  0  0  0  0  0  0  0
    5.1925   -1.8533    0.4564 H   0  0  0  0  0  0  0  0  0  0  0  0
    4.8658   -1.8626    2.1974 H   0  0  0  0  0  0  0  0  0  0  0  0
    4.8513    0.4590    1.3503 H   0  0  0  0  0  0  0  0  0  0  0  0
    3.2043   -0.0033    1.8687 H   0  0  0  0  0  0  0  0  0  0  0  0
    0.9187    2.9079   -0.5920 H   0  0  0  0  0  0  0  0  0  0  0  0
    0.6588    3.0067    1.1669 H   0  0  0  0  0  0  0  0  0  0  0  0
    3.3764    2.9338   -0.2559 H   0  0  0  0  0  0  0  0  0  0  0  0
    2.6360    4.3748    0.4568 H   0  0  0  0  0  0  0  0  0  0  0  0
    3.1526    3.0383    1.5017 H   0  0  0  0  0  0  0  0  0  0  0  0
    0.0438   -2.5375   -1.9102 H   0  0  0  0  0  0  0  0  0  0  0  0
   -0.1498   -0.7492   -1.8906 H   0  0  0  0  0  0  0  0  0  0  0  0
   -0.6526    0.0854    3.4773 H   0  0  0  0  0  0  0  0  0  0  0  0
   -2.4081   -0.0326    3.1637 H   0  0  0  0  0  0  0  0  0  0  0  0
   -0.3736   -2.1968    2.4185 H   0  0  0  0  0  0  0  0  0  0  0  0
   -1.3829   -2.2277    3.8735 H   0  0  0  0  0  0  0  0  0  0  0  0
   -2.1329   -2.3170    2.2748 H   0  0  0  0  0  0  0  0  0  0  0  0
   -4.5162   -1.5548   -0.0017 H   0  0  0  0  0  0  0  0  0  0  0  0
   -5.4595   -0.2876    0.8396 H   0  0  0  0  0  0  0  0  0  0  0  0
   -4.0635    0.0008   -1.8735 H   0  0  0  0  0  0  0  0  0  0  0  0
   -5.8088   -0.1557   -1.6224 H   0  0  0  0  0  0  0  0  0  0  0  0
   -4.9491    1.2865   -1.0525 H   0  0  0  0  0  0  0  0  0  0  0  0
  1  2  1  0  0  0  0
  2  3  1  0  0  0  0
  3  4  2  0  0  0  0
  4  5  2  0  0  0  0
  4  6  1  0  0  0  0
  6  7  1  0  0  0  0
  7  8  1  0  0  0  0
  4  9  1  0  0  0  0
  9 10  1  0  0  0  0
 10 11  1  0  0  0  0
 11 12  1  0  0  0  0
 12 13  2  0  0  0  0
 12 14  2  0  0  0  0
 14 15  1  0  0  0  0
 15 16  1  0  0  0  0
 12 17  2  0  0  0  0
 17 18  1  0  0  0  0
 18 19  1  0  0  0  0
  1 20  1  0  0  0  0
  1 21  1  0  0  0  0
  1 22  1  0  0  0  0
  2 23  1  0  0  0  0
  2 24  1  0  0  0  0
  7 25  1  0  0  0  0
  7 26  1  0  0  0  0
  8 27  1  0  0  0  0
  8 28  1  0  0  0  0
  8 29  1  0  0  0  0
 10 30  1  0  0  0  0
 10 31  1  0  0  0  0
 15 32  1  0  0  0  0
 15 33  1  0  0  0  0
 16 34  1  0  0  0  0
 16 35  1  0  0  0  0
 16 36  1  0  0  0  0
 18 37  1  0  0  0  0
 18 38  1  0  0  0  0
 19 39  1  0  0  0  0
 19 40  1  0  0  0  0
 19 41  1  0  0  0  0
M  END
