 xtb: 6.7.1 (edcfbbe)
          04092505203D

 41 40  0     0  0            999 V2000
    4.4192   -0.2691   -1.9989 C   0  0  0  0  0  0  0  0  0  0  0  0
    4.3867    0.8266   -0.9527 C   0  0  0  0  0  0  0  0  0  0  0  0
    3.6006    0.4645    0.1939 O   0  0  0  0  0  0  0  0  0  0  0  0
    2.0246    0.2723    0.1335 P   0  0  0  0  0  0  0  0  0  0  0  0
    1.0960    1.5818   -0.9957 S   0  0  0  0  0  0  0  0  0  0  0  0
    1.6038    0.4142    1.6467 O   0  0  0  0  0  0  0  0  0  0  0  0
    1.8009   -0.5731    2.6937 C   0  0  0  0  0  0  0  0  0  0  0  0
    3.2411   -1.0157    2.8251 C   0  0  0  0  0  0  0  0  0  0  0  0
    1.7699   -1.7750   -0.3799 S   0  0  0  0  0  0  0  0  0  0  0  0
    0.0232   -1.7134   -0.8339 C   0  0  0  0  0  0  0  0  0  0  0  0
   -1.0288   -1.1576    0.5445 S   0  0  0  0  0  0  0  0  0  0  0  0
   -2.1805    0.3651   -0.4037 P   0  0  0  0  0  0  0  0  0  0  0  0
   -2.0684    0.4067   -2.3574 S   0  0  0  0  0  0  0  0  0  0  0  0
   -1.8149    1.7410    0.2751 O   0  0  0  0  0  0  0  0  0  0  0  0
   -2.2801    2.1974    1.5676 C   0  0  0  0  0  0  0  0  0  0  0  0
   -1.7443    1.3497    2.7019 C   0  0  0  0  0  0  0  0  0  0  0  0
   -3.6473    0.1215    0.1700 O   0  0  0  0  0  0  0  0  0  0  0  0
   -4.5940   -0.7582   -0.4616 C   0  0  0  0  0  0  0  0  0  0  0  0
   -4.1518   -2.2069   -0.4364 C   0  0  0  0  0  0  0  0  0  0  0  0
    5.1326   -0.0040   -2.7727 H   0  0  0  0  0  0  0  0  0  0  0  0
    4.7081   -1.2154   -1.5489 H   0  0  0  0  0  0  0  0  0  0  0  0
    3.4356   -0.3798   -2.4531 H   0  0  0  0  0  0  0  0  0  0  0  0
    3.9769    1.7494   -1.3760 H   0  0  0  0  0  0  0  0  0  0  0  0
    5.3775    1.0168   -0.5379 H   0  0  0  0  0  0  0  0  0  0  0  0
    1.4574   -0.0548    3.5902 H   0  0  0  0  0  0  0  0  0  0  0  0
    1.1428   -1.4214    2.4843 H   0  0  0  0  0  0  0  0  0  0  0  0
    3.8899   -0.1539    2.9569 H   0  0  0  0  0  0  0  0  0  0  0  0
    3.3298   -1.6690    3.6876 H   0  0  0  0  0  0  0  0  0  0  0  0
    3.5536   -1.5588    1.9357 H   0  0  0  0  0  0  0  0  0  0  0  0
   -0.2521   -2.7310   -1.0998 H   0  0  0  0  0  0  0  0  0  0  0  0
   -0.1278   -1.0303   -1.6748 H   0  0  0  0  0  0  0  0  0  0  0  0
   -1.9022    3.2201    1.6164 H   0  0  0  0  0  0  0  0  0  0  0  0
   -3.3719    2.2016    1.5574 H   0  0  0  0  0  0  0  0  0  0  0  0
   -2.1493    0.3405    2.6442 H   0  0  0  0  0  0  0  0  0  0  0  0
   -0.6594    1.2986    2.6438 H   0  0  0  0  0  0  0  0  0  0  0  0
   -2.0338    1.7971    3.6475 H   0  0  0  0  0  0  0  0  0  0  0  0
   -5.5086   -0.6057    0.1135 H   0  0  0  0  0  0  0  0  0  0  0  0
   -4.7400   -0.4211   -1.4924 H   0  0  0  0  0  0  0  0  0  0  0  0
   -3.2870   -2.3400   -1.0848 H   0  0  0  0  0  0  0  0  0  0  0  0
   -3.8889   -2.5084    0.5742 H   0  0  0  0  0  0  0  0  0  0  0  0
   -4.9612   -2.8311   -0.8011 H   0  0  0  0  0  0  0  0  0  0  0  0
  1  2  1  0  0  0  0
  2  3  1  0  0  0  0
  3  4  2  0  0  0  0
  4  5  2  0  0  0  0
  4  6  2  0  0  0  0
  6  7  1  0  0  0  0
  7  8  1  0  0  0  0
  4  9  1  0  0  0  0
  9 10  1  0  0  0  0
 10 11  1  0  0  0  0
 11 12  1  0  0  0  0
 12 13  2  0  0  0  0
 12 14  2  0  0  0  0
 14 15  1  0  0  0  0
 15 16  1  0  0  0  0
 12 17  2  0  0  0  0
 17 18  1  0  0  0  0
 18 19  1  0  0  0  0
  1 20  1  0  0  0  0
  1 21  1  0  0  0  0
  1 22  1  0  0  0  0
  2 23  1  0  0  0  0
  2 24  1  0  0  0  0
  7 25  1  0  0  0  0
  7 26  1  0  0  0  0
  8 27  1  0  0  0  0
  8 28  1  0  0  0  0
  8 29  1  0  0  0  0
 10 30  1  0  0  0  0
 10 31  1  0  0  0  0
 15 32  1  0  0  0  0
 15 33  1  0  0  0  0
 16 34  1  0  0  0  0
 16 35  1  0  0  0  0
 16 36  1  0  0  0  0
 18 37  1  0  0  0  0
 18 38  1  0  0  0  0
 19 39  1  0  0  0  0
 19 40  1  0  0  0  0
 19 41  1  0  0  0  0
M  END
