 xtb: 6.7.1 (edcfbbe)
          04092505203D

 41 40  0     0  0            999 V2000
    4.5034    0.0064   -2.0749 C   0  0  0  0  0  0  0  0  0  0  0  0
    4.4425    1.0731   -1.0009 C   0  0  0  0  0  0  0  0  0  0  0  0
    3.6721    0.6606    0.1413 O   0  0  0  0  0  0  0  0  0  0  0  0
    2.1065    0.3833    0.0794 P   0  0  0  0  0  0  0  0  0  0  0  0
    1.0749    1.6329   -1.0232 S   0  0  0  0  0  0  0  0  0  0  0  0
    1.7127    0.4660    1.6050 O   0  0  0  0  0  0  0  0  0  0  0  0
    2.4084   -0.2932    2.6359 C   0  0  0  0  0  0  0  0  0  0  0  0
    1.5062   -1.3711    3.2013 C   0  0  0  0  0  0  0  0  0  0  0  0
    2.0022   -1.6729   -0.4506 S   0  0  0  0  0  0  0  0  0  0  0  0
    0.2538   -1.7354   -0.9016 C   0  0  0  0  0  0  0  0  0  0  0  0
   -0.8457   -1.2755    0.4729 S   0  0  0  0  0  0  0  0  0  0  0  0
   -2.0681    0.2118   -0.4381 P   0  0  0  0  0  0  0  0  0  0  0  0
   -1.9760    0.2489   -2.3941 S   0  0  0  0  0  0  0  0  0  0  0  0
   -1.8198    1.6137    0.2314 O   0  0  0  0  0  0  0  0  0  0  0  0
   -2.2748    2.0180    1.5467 C   0  0  0  0  0  0  0  0  0  0  0  0
   -1.6333    1.2058    2.6513 C   0  0  0  0  0  0  0  0  0  0  0  0
   -3.5056   -0.1549    0.1410 O   0  0  0  0  0  0  0  0  0  0  0  0
   -4.1989   -1.3402   -0.2979 C   0  0  0  0  0  0  0  0  0  0  0  0
   -5.6458   -1.2210    0.1355 C   0  0  0  0  0  0  0  0  0  0  0  0
    5.2040    0.3143   -2.8445 H   0  0  0  0  0  0  0  0  0  0  0  0
    4.8241   -0.9420   -1.6514 H   0  0  0  0  0  0  0  0  0  0  0  0
    3.5213   -0.1231   -2.5276 H   0  0  0  0  0  0  0  0  0  0  0  0
    4.0030    1.9934   -1.3977 H   0  0  0  0  0  0  0  0  0  0  0  0
    5.4287    1.2819   -0.5836 H   0  0  0  0  0  0  0  0  0  0  0  0
    3.3177   -0.7192    2.2080 H   0  0  0  0  0  0  0  0  0  0  0  0
    2.6719    0.4457    3.3939 H   0  0  0  0  0  0  0  0  0  0  0  0
    0.5907   -0.9342    3.5889 H   0  0  0  0  0  0  0  0  0  0  0  0
    1.2451   -2.0957    2.4340 H   0  0  0  0  0  0  0  0  0  0  0  0
    2.0307   -1.8775    4.0052 H   0  0  0  0  0  0  0  0  0  0  0  0
    0.0525   -2.7672   -1.1784 H   0  0  0  0  0  0  0  0  0  0  0  0
    0.0527   -1.0584   -1.7370 H   0  0  0  0  0  0  0  0  0  0  0  0
   -1.9781    3.0672    1.5944 H   0  0  0  0  0  0  0  0  0  0  0  0
   -3.3628    1.9344    1.5718 H   0  0  0  0  0  0  0  0  0  0  0  0
   -0.5504    1.2329    2.5494 H   0  0  0  0  0  0  0  0  0  0  0  0
   -1.9155    1.6268    3.6114 H   0  0  0  0  0  0  0  0  0  0  0  0
   -1.9677    0.1704    2.6022 H   0  0  0  0  0  0  0  0  0  0  0  0
   -4.1085   -1.4113   -1.3870 H   0  0  0  0  0  0  0  0  0  0  0  0
   -3.7141   -2.2069    0.1599 H   0  0  0  0  0  0  0  0  0  0  0  0
   -6.1012   -0.3466   -0.3209 H   0  0  0  0  0  0  0  0  0  0  0  0
   -6.1838   -2.1093   -0.1785 H   0  0  0  0  0  0  0  0  0  0  0  0
   -5.7048   -1.1271    1.2158 H   0  0  0  0  0  0  0  0  0  0  0  0
  1  2  1  0  0  0  0
  2  3  1  0  0  0  0
  3  4  2  0  0  0  0
  4  5  2  0  0  0  0
  4  6  2  0  0  0  0
  6  7  1  0  0  0  0
  7  8  1  0  0  0  0
  4  9  1  0  0  0  0
  9 10  1  0  0  0  0
 10 11  1  0  0  0  0
 11 12  1  0  0  0  0
 12 13  2  0  0  0  0
 12 14  2  0  0  0  0
 14 15  1  0  0  0  0
 15 16  1  0  0  0  0
 12 17  2  0  0  0  0
 17 18  1  0  0  0  0
 18 19  1  0  0  0  0
  1 20  1  0  0  0  0
  1 21  1  0  0  0  0
  1 22  1  0  0  0  0
  2 23  1  0  0  0  0
  2 24  1  0  0  0  0
  7 25  1  0  0  0  0
  7 26  1  0  0  0  0
  8 27  1  0  0  0  0
  8 28  1  0  0  0  0
  8 29  1  0  0  0  0
 10 30  1  0  0  0  0
 10 31  1  0  0  0  0
 15 32  1  0  0  0  0
 15 33  1  0  0  0  0
 16 34  1  0  0  0  0
 16 35  1  0  0  0  0
 16 36  1  0  0  0  0
 18 37  1  0  0  0  0
 18 38  1  0  0  0  0
 19 39  1  0  0  0  0
 19 40  1  0  0  0  0
 19 41  1  0  0  0  0
M  END
