 xtb: 6.7.1 (edcfbbe)
          04032520013D

 12 12  0     0  0            999 V2000
   -1.2798   -0.5620   -0.0001 C   0  0  0  0  0  0  0  0  0  0  0  0
   -1.1074    0.8133   -0.0001 C   0  0  0  0  0  0  0  0  0  0  0  0
    0.1532    1.3894   -0.0003 C   0  0  0  0  0  0  0  0  0  0  0  0
    1.2580    0.5524   -0.0002 C   0  0  0  0  0  0  0  0  0  0  0  0
    1.1266   -0.8274   -0.0001 C   0  0  0  0  0  0  0  0  0  0  0  0
   -0.1505   -1.3656   -0.0001 C   0  0  0  0  0  0  0  0  0  0  0  0
   -0.3400   -3.0831    0.0001 Cl  0  0  0  0  0  0  0  0  0  0  0  0
    2.8401    1.2471    0.0001 Cl  0  0  0  0  0  0  0  0  0  0  0  0
   -2.5002    1.8359    0.0001 Cl  0  0  0  0  0  0  0  0  0  0  0  0
   -2.2658   -0.9950   -0.0001 H   0  0  0  0  0  0  0  0  0  0  0  0
    0.2713    2.4598   -0.0002 H   0  0  0  0  0  0  0  0  0  0  0  0
    1.9946   -1.4648    0.0001 H   0  0  0  0  0  0  0  0  0  0  0  0
  1  2  4  0  0  0  0
  2  3  4  0  0  0  0
  3  4  4  0  0  0  0
  4  5  4  0  0  0  0
  1  6  4  0  0  0  0
  5  6  4  0  0  0  0
  6  7  1  0  0  0  0
  4  8  1  0  0  0  0
  2  9  1  0  0  0  0
  1 10  1  0  0  0  0
  3 11  1  0  0  0  0
  5 12  1  0  0  0  0
M  END
