 xtb: 6.7.1 (edcfbbe)
          04092507313D

 38 37  0     0  0            999 V2000
    2.5315   -3.8451   -0.6864 C   0  0  0  0  0  0  0  0  0  0  0  0
    2.6684   -3.4475    0.7747 C   0  0  0  0  0  0  0  0  0  0  0  0
    2.7593   -2.0143    0.9002 O   0  0  0  0  0  0  0  0  0  0  0  0
    1.6513   -1.3204    1.0135 C   0  0  0  0  0  0  0  0  0  0  0  0
    0.5389   -1.8106    1.0692 O   0  0  0  0  0  0  0  0  0  0  0  0
    1.9159    0.1667    1.0744 C   0  0  0  0  0  0  0  0  0  0  0  0
    0.8601    0.9191    0.2770 C   0  0  0  0  0  0  0  0  0  0  0  0
    0.7740    0.5044   -0.7377 H   0  0  0  0  0  0  0  0  0  0  0  0
    1.1692    2.4052    0.1617 C   0  0  0  0  0  0  0  0  0  0  0  0
    2.1381    2.9261    0.6605 O   0  0  0  0  0  0  0  0  0  0  0  0
    0.2510    3.0230   -0.5485 O   0  0  0  0  0  0  0  0  0  0  0  0
    0.4042    4.4403   -0.7739 C   0  0  0  0  0  0  0  0  0  0  0  0
    1.2701    4.7040   -1.9949 C   0  0  0  0  0  0  0  0  0  0  0  0
   -0.8054    0.7623    1.0184 S   0  0  0  0  0  0  0  0  0  0  0  0
   -1.5853   -0.7945   -0.2169 P   0  0  0  0  0  0  0  0  0  0  0  0
   -0.5375   -1.3385   -1.7779 S   0  0  0  0  0  0  0  0  0  0  0  0
   -2.1133   -1.9860    0.6670 O   0  0  0  0  0  0  0  0  0  0  0  0
   -2.8954   -1.7747    1.8576 C   0  0  0  0  0  0  0  0  0  0  0  0
   -3.0013   -0.1513   -0.6412 O   0  0  0  0  0  0  0  0  0  0  0  0
   -3.0562    0.9812   -1.5106 C   0  0  0  0  0  0  0  0  0  0  0  0
    2.5004   -4.9266   -0.7648 H   0  0  0  0  0  0  0  0  0  0  0  0
    1.6133   -3.4353   -1.1046 H   0  0  0  0  0  0  0  0  0  0  0  0
    3.3734   -3.4662   -1.2590 H   0  0  0  0  0  0  0  0  0  0  0  0
    3.5980   -3.8202    1.2048 H   0  0  0  0  0  0  0  0  0  0  0  0
    1.8086   -3.7962    1.3537 H   0  0  0  0  0  0  0  0  0  0  0  0
    2.9081    0.3754    0.6741 H   0  0  0  0  0  0  0  0  0  0  0  0
    1.8892    0.4907    2.1175 H   0  0  0  0  0  0  0  0  0  0  0  0
   -0.6128    4.8035   -0.9204 H   0  0  0  0  0  0  0  0  0  0  0  0
    0.8460    4.8872    0.1206 H   0  0  0  0  0  0  0  0  0  0  0  0
    1.3033    5.7715   -2.1855 H   0  0  0  0  0  0  0  0  0  0  0  0
    2.2819    4.3448   -1.8218 H   0  0  0  0  0  0  0  0  0  0  0  0
    0.8582    4.1973   -2.8633 H   0  0  0  0  0  0  0  0  0  0  0  0
   -3.8177   -1.2517    1.6104 H   0  0  0  0  0  0  0  0  0  0  0  0
   -2.3172   -1.2001    2.5810 H   0  0  0  0  0  0  0  0  0  0  0  0
   -3.1029   -2.7716    2.2380 H   0  0  0  0  0  0  0  0  0  0  0  0
   -2.6045    1.8475   -1.0253 H   0  0  0  0  0  0  0  0  0  0  0  0
   -4.1119    1.1539   -1.7015 H   0  0  0  0  0  0  0  0  0  0  0  0
   -2.5291    0.7639   -2.4412 H   0  0  0  0  0  0  0  0  0  0  0  0
  1  2  1  0  0  0  0
  2  3  1  0  0  0  0
  3  4  4  0  0  0  0
  4  5  2  0  0  0  0
  4  6  1  0  0  0  0
  6  7  1  0  0  0  0
  7  8  1  0  0  0  0
  7  9  1  0  0  0  0
  9 10  2  0  0  0  0
  9 11  1  0  0  0  0
 11 12  1  0  0  0  0
 12 13  1  0  0  0  0
  7 14  1  0  0  0  0
 14 15  1  0  0  0  0
 15 16  2  0  0  0  0
 15 17  2  0  0  0  0
 17 18  1  0  0  0  0
 15 19  1  0  0  0  0
 19 20  1  0  0  0  0
  1 21  1  0  0  0  0
  1 22  1  0  0  0  0
  1 23  1  0  0  0  0
  2 24  1  0  0  0  0
  2 25  1  0  0  0  0
  6 26  1  0  0  0  0
  6 27  1  0  0  0  0
 12 28  1  0  0  0  0
 12 29  1  0  0  0  0
 13 30  1  0  0  0  0
 13 31  1  0  0  0  0
 13 32  1  0  0  0  0
 18 33  1  0  0  0  0
 18 34  1  0  0  0  0
 18 35  1  0  0  0  0
 20 36  1  0  0  0  0
 20 37  1  0  0  0  0
 20 38  1  0  0  0  0
M  END
