 xtb: 6.7.1 (edcfbbe)
          04092505203D

 41 40  0     0  0            999 V2000
    4.0693   -1.4996   -2.3783 C   0  0  0  0  0  0  0  0  0  0  0  0
    4.4221   -1.5640   -0.9062 C   0  0  0  0  0  0  0  0  0  0  0  0
    3.2532   -1.5706   -0.0690 O   0  0  0  0  0  0  0  0  0  0  0  0
    2.2995   -0.3102    0.0786 P   0  0  0  0  0  0  0  0  0  0  0  0
    3.2045    1.4320    0.1531 S   0  0  0  0  0  0  0  0  0  0  0  0
    1.4426   -0.7064    1.3527 O   0  0  0  0  0  0  0  0  0  0  0  0
    1.8009   -0.2739    2.6818 C   0  0  0  0  0  0  0  0  0  0  0  0
    3.0702   -0.9428    3.1648 C   0  0  0  0  0  0  0  0  0  0  0  0
    0.8391   -0.5695   -1.4269 S   0  0  0  0  0  0  0  0  0  0  0  0
    0.1326    1.0958   -1.2985 C   0  0  0  0  0  0  0  0  0  0  0  0
   -0.7663    1.3687    0.2450 S   0  0  0  0  0  0  0  0  0  0  0  0
   -2.5994    0.3895   -0.2909 P   0  0  0  0  0  0  0  0  0  0  0  0
   -2.8923    0.1083   -2.2021 S   0  0  0  0  0  0  0  0  0  0  0  0
   -3.7220    1.3081    0.3120 O   0  0  0  0  0  0  0  0  0  0  0  0
   -3.7489    1.7120    1.7066 C   0  0  0  0  0  0  0  0  0  0  0  0
   -4.4935    3.0275    1.7947 C   0  0  0  0  0  0  0  0  0  0  0  0
   -2.6942   -0.8652    0.6898 O   0  0  0  0  0  0  0  0  0  0  0  0
   -1.7913   -1.9817    0.7484 C   0  0  0  0  0  0  0  0  0  0  0  0
   -1.9002   -2.8824   -0.4654 C   0  0  0  0  0  0  0  0  0  0  0  0
    3.3619   -2.2850   -2.6326 H   0  0  0  0  0  0  0  0  0  0  0  0
    3.6200   -0.5355   -2.6133 H   0  0  0  0  0  0  0  0  0  0  0  0
    4.9709   -1.6201   -2.9704 H   0  0  0  0  0  0  0  0  0  0  0  0
    5.0459   -0.7099   -0.6233 H   0  0  0  0  0  0  0  0  0  0  0  0
    4.9301   -2.4957   -0.6541 H   0  0  0  0  0  0  0  0  0  0  0  0
    1.9128    0.8150    2.6716 H   0  0  0  0  0  0  0  0  0  0  0  0
    0.9386   -0.5504    3.2897 H   0  0  0  0  0  0  0  0  0  0  0  0
    2.9801   -2.0228    3.0841 H   0  0  0  0  0  0  0  0  0  0  0  0
    3.9144   -0.6137    2.5599 H   0  0  0  0  0  0  0  0  0  0  0  0
    3.2506   -0.6692    4.1996 H   0  0  0  0  0  0  0  0  0  0  0  0
   -0.5500    1.2102   -2.1411 H   0  0  0  0  0  0  0  0  0  0  0  0
    0.9359    1.8317   -1.3258 H   0  0  0  0  0  0  0  0  0  0  0  0
   -4.2538    0.9230    2.2667 H   0  0  0  0  0  0  0  0  0  0  0  0
   -2.7194    1.8116    2.0629 H   0  0  0  0  0  0  0  0  0  0  0  0
   -4.5577    3.3325    2.8342 H   0  0  0  0  0  0  0  0  0  0  0  0
   -3.9710    3.7924    1.2271 H   0  0  0  0  0  0  0  0  0  0  0  0
   -5.4947    2.9144    1.3889 H   0  0  0  0  0  0  0  0  0  0  0  0
   -0.7692   -1.6095    0.8670 H   0  0  0  0  0  0  0  0  0  0  0  0
   -2.0948   -2.5060    1.6569 H   0  0  0  0  0  0  0  0  0  0  0  0
   -1.2778   -3.7587   -0.3152 H   0  0  0  0  0  0  0  0  0  0  0  0
   -2.9318   -3.1920   -0.6118 H   0  0  0  0  0  0  0  0  0  0  0  0
   -1.5635   -2.3624   -1.3603 H   0  0  0  0  0  0  0  0  0  0  0  0
  1  2  1  0  0  0  0
  2  3  1  0  0  0  0
  3  4  2  0  0  0  0
  4  5  2  0  0  0  0
  4  6  2  0  0  0  0
  6  7  1  0  0  0  0
  7  8  1  0  0  0  0
  4  9  1  0  0  0  0
  9 10  1  0  0  0  0
 10 11  1  0  0  0  0
 11 12  1  0  0  0  0
 12 13  2  0  0  0  0
 12 14  2  0  0  0  0
 14 15  1  0  0  0  0
 15 16  1  0  0  0  0
 12 17  2  0  0  0  0
 17 18  1  0  0  0  0
 18 19  1  0  0  0  0
  1 20  1  0  0  0  0
  1 21  1  0  0  0  0
  1 22  1  0  0  0  0
  2 23  1  0  0  0  0
  2 24  1  0  0  0  0
  7 25  1  0  0  0  0
  7 26  1  0  0  0  0
  8 27  1  0  0  0  0
  8 28  1  0  0  0  0
  8 29  1  0  0  0  0
 10 30  1  0  0  0  0
 10 31  1  0  0  0  0
 15 32  1  0  0  0  0
 15 33  1  0  0  0  0
 16 34  1  0  0  0  0
 16 35  1  0  0  0  0
 16 36  1  0  0  0  0
 18 37  1  0  0  0  0
 18 38  1  0  0  0  0
 19 39  1  0  0  0  0
 19 40  1  0  0  0  0
 19 41  1  0  0  0  0
M  END
