 xtb: 6.7.1 (edcfbbe)
          04092505203D

 41 40  0     0  0            999 V2000
    5.7316   -0.7483   -1.5041 C   0  0  0  0  0  0  0  0  0  0  0  0
    4.3084   -0.9667   -1.9795 C   0  0  0  0  0  0  0  0  0  0  0  0
    3.4831   -1.4310   -0.8911 O   0  0  0  0  0  0  0  0  0  0  0  0
    2.5178   -0.4475   -0.1181 P   0  0  0  0  0  0  0  0  0  0  0  0
    3.2375    1.3416    0.2575 S   0  0  0  0  0  0  0  0  0  0  0  0
    2.2521   -1.4388    1.0833 O   0  0  0  0  0  0  0  0  0  0  0  0
    1.2512   -1.2981    2.1060 C   0  0  0  0  0  0  0  0  0  0  0  0
    1.5482   -0.1569    3.0588 C   0  0  0  0  0  0  0  0  0  0  0  0
    0.7522   -0.4466   -1.3269 S   0  0  0  0  0  0  0  0  0  0  0  0
    0.1945    1.2477   -1.0092 C   0  0  0  0  0  0  0  0  0  0  0  0
   -0.6783    1.4308    0.5704 S   0  0  0  0  0  0  0  0  0  0  0  0
   -2.3704    0.2883    0.0365 P   0  0  0  0  0  0  0  0  0  0  0  0
   -3.0330    0.4711   -1.8037 S   0  0  0  0  0  0  0  0  0  0  0  0
   -3.4329    0.5920    1.1766 O   0  0  0  0  0  0  0  0  0  0  0  0
   -4.3881    1.6626    1.0767 C   0  0  0  0  0  0  0  0  0  0  0  0
   -3.7292    3.0244    1.1602 C   0  0  0  0  0  0  0  0  0  0  0  0
   -1.8585   -1.1548    0.4541 O   0  0  0  0  0  0  0  0  0  0  0  0
   -2.4374   -2.3588   -0.0885 C   0  0  0  0  0  0  0  0  0  0  0  0
   -3.8495   -2.5762    0.4122 C   0  0  0  0  0  0  0  0  0  0  0  0
    6.3527   -0.4655   -2.3479 H   0  0  0  0  0  0  0  0  0  0  0  0
    5.7584    0.0456   -0.7608 H   0  0  0  0  0  0  0  0  0  0  0  0
    6.1187   -1.6599   -1.0582 H   0  0  0  0  0  0  0  0  0  0  0  0
    4.2547   -1.7553   -2.7321 H   0  0  0  0  0  0  0  0  0  0  0  0
    3.8907   -0.0420   -2.3894 H   0  0  0  0  0  0  0  0  0  0  0  0
    0.2706   -1.1705    1.6372 H   0  0  0  0  0  0  0  0  0  0  0  0
    1.2818   -2.2599    2.6221 H   0  0  0  0  0  0  0  0  0  0  0  0
    0.8308   -0.1780    3.8729 H   0  0  0  0  0  0  0  0  0  0  0  0
    2.5535   -0.2567    3.4603 H   0  0  0  0  0  0  0  0  0  0  0  0
    1.4691    0.8011    2.5482 H   0  0  0  0  0  0  0  0  0  0  0  0
   -0.4763    1.5127   -1.8255 H   0  0  0  0  0  0  0  0  0  0  0  0
    1.0586    1.9121   -0.9636 H   0  0  0  0  0  0  0  0  0  0  0  0
   -4.9304    1.5555    0.1316 H   0  0  0  0  0  0  0  0  0  0  0  0
   -5.0639    1.4897    1.9153 H   0  0  0  0  0  0  0  0  0  0  0  0
   -4.4948    3.7923    1.2052 H   0  0  0  0  0  0  0  0  0  0  0  0
   -3.1012    3.0870    2.0453 H   0  0  0  0  0  0  0  0  0  0  0  0
   -3.1106    3.1949    0.2799 H   0  0  0  0  0  0  0  0  0  0  0  0
   -2.4165   -2.2896   -1.1810 H   0  0  0  0  0  0  0  0  0  0  0  0
   -1.7616   -3.1485    0.2424 H   0  0  0  0  0  0  0  0  0  0  0  0
   -3.8714   -2.5451    1.4983 H   0  0  0  0  0  0  0  0  0  0  0  0
   -4.5037   -1.7965    0.0239 H   0  0  0  0  0  0  0  0  0  0  0  0
   -4.2087   -3.5413    0.0688 H   0  0  0  0  0  0  0  0  0  0  0  0
  1  2  1  0  0  0  0
  2  3  1  0  0  0  0
  3  4  2  0  0  0  0
  4  5  2  0  0  0  0
  4  6  2  0  0  0  0
  6  7  1  0  0  0  0
  7  8  1  0  0  0  0
  4  9  1  0  0  0  0
  9 10  1  0  0  0  0
 10 11  1  0  0  0  0
 11 12  1  0  0  0  0
 12 13  2  0  0  0  0
 12 14  2  0  0  0  0
 14 15  1  0  0  0  0
 15 16  1  0  0  0  0
 12 17  2  0  0  0  0
 17 18  1  0  0  0  0
 18 19  1  0  0  0  0
  1 20  1  0  0  0  0
  1 21  1  0  0  0  0
  1 22  1  0  0  0  0
  2 23  1  0  0  0  0
  2 24  1  0  0  0  0
  7 25  1  0  0  0  0
  7 26  1  0  0  0  0
  8 27  1  0  0  0  0
  8 28  1  0  0  0  0
  8 29  1  0  0  0  0
 10 30  1  0  0  0  0
 10 31  1  0  0  0  0
 15 32  1  0  0  0  0
 15 33  1  0  0  0  0
 16 34  1  0  0  0  0
 16 35  1  0  0  0  0
 16 36  1  0  0  0  0
 18 37  1  0  0  0  0
 18 38  1  0  0  0  0
 19 39  1  0  0  0  0
 19 40  1  0  0  0  0
 19 41  1  0  0  0  0
M  END
