 xtb: 6.7.1 (edcfbbe)
          04032519403D

 19 19  0     0  0            999 V2000
   -2.5893    0.5615    0.0106 C   0  0  0  0  0  0  0  0  0  0  0  0
   -1.2158   -0.0488   -0.0005 C   0  0  0  0  0  0  0  0  0  0  0  0
   -1.1352   -1.4363   -0.0021 C   0  0  0  0  0  0  0  0  0  0  0  0
    0.0876   -2.0778   -0.0056 C   0  0  0  0  0  0  0  0  0  0  0  0
    1.2462   -1.3296   -0.0021 C   0  0  0  0  0  0  0  0  0  0  0  0
    1.1835    0.0599    0.0013 C   0  0  0  0  0  0  0  0  0  0  0  0
   -0.0502    0.7225   -0.0040 C   0  0  0  0  0  0  0  0  0  0  0  0
   -0.1420    2.2262   -0.0134 C   0  0  0  0  0  0  0  0  0  0  0  0
    2.3903    0.7003    0.0105 O   0  0  0  0  0  0  0  0  0  0  0  0
   -2.5695    1.6441   -0.0109 H   0  0  0  0  0  0  0  0  0  0  0  0
   -3.1543    0.2079   -0.8503 H   0  0  0  0  0  0  0  0  0  0  0  0
   -3.1211    0.2445    0.9064 H   0  0  0  0  0  0  0  0  0  0  0  0
   -2.0474   -2.0147   -0.0005 H   0  0  0  0  0  0  0  0  0  0  0  0
    0.1414   -3.1557   -0.0084 H   0  0  0  0  0  0  0  0  0  0  0  0
    2.2202   -1.7935   -0.0008 H   0  0  0  0  0  0  0  0  0  0  0  0
   -0.6336    2.5796    0.8919 H   0  0  0  0  0  0  0  0  0  0  0  0
    0.8305    2.7079   -0.0709 H   0  0  0  0  0  0  0  0  0  0  0  0
   -0.7201    2.5599   -0.8736 H   0  0  0  0  0  0  0  0  0  0  0  0
    2.2768    1.6615    0.0388 H   0  0  0  0  0  0  0  0  0  0  0  0
  1  2  1  0  0  0  0
  2  3  4  0  0  0  0
  3  4  4  0  0  0  0
  4  5  4  0  0  0  0
  5  6  4  0  0  0  0
  2  7  4  0  0  0  0
  6  7  4  0  0  0  0
  7  8  1  0  0  0  0
  6  9  1  0  0  0  0
  1 10  1  0  0  0  0
  1 11  1  0  0  0  0
  1 12  1  0  0  0  0
  3 13  1  0  0  0  0
  4 14  1  0  0  0  0
  5 15  1  0  0  0  0
  8 16  1  0  0  0  0
  8 17  1  0  0  0  0
  8 18  1  0  0  0  0
  9 19  1  0  0  0  0
M  END
