 xtb: 6.7.1 (edcfbbe)
          04092505213D

 41 40  0     0  0            999 V2000
    4.3680    1.8309   -1.5144 C   0  0  0  0  0  0  0  0  0  0  0  0
    4.6060    0.3458   -1.3353 C   0  0  0  0  0  0  0  0  0  0  0  0
    3.3762   -0.3983   -1.1978 O   0  0  0  0  0  0  0  0  0  0  0  0
    2.3173   -0.1864   -0.0388 P   0  0  0  0  0  0  0  0  0  0  0  0
    1.0521    1.3135   -0.2211 S   0  0  0  0  0  0  0  0  0  0  0  0
    3.2573   -0.0858    1.2400 O   0  0  0  0  0  0  0  0  0  0  0  0
    2.7725    0.3911    2.5073 C   0  0  0  0  0  0  0  0  0  0  0  0
    1.8573   -0.6129    3.1780 C   0  0  0  0  0  0  0  0  0  0  0  0
    1.5127   -2.1399   -0.0174 S   0  0  0  0  0  0  0  0  0  0  0  0
   -0.1924   -1.8565   -0.5579 C   0  0  0  0  0  0  0  0  0  0  0  0
   -1.2423   -1.0979    0.7204 S   0  0  0  0  0  0  0  0  0  0  0  0
   -2.2491    0.3924   -0.4328 P   0  0  0  0  0  0  0  0  0  0  0  0
   -1.8253    0.3947   -2.3463 S   0  0  0  0  0  0  0  0  0  0  0  0
   -2.0215    1.8272    0.1670 O   0  0  0  0  0  0  0  0  0  0  0  0
   -2.4933    2.3136    1.4473 C   0  0  0  0  0  0  0  0  0  0  0  0
   -1.7997    1.6367    2.6111 C   0  0  0  0  0  0  0  0  0  0  0  0
   -3.7754    0.1589   -0.0312 O   0  0  0  0  0  0  0  0  0  0  0  0
   -4.4656   -1.1023   -0.0476 C   0  0  0  0  0  0  0  0  0  0  0  0
   -4.5507   -1.7061   -1.4344 C   0  0  0  0  0  0  0  0  0  0  0  0
    3.9073    2.2483   -0.6199 H   0  0  0  0  0  0  0  0  0  0  0  0
    5.3149    2.3305   -1.6931 H   0  0  0  0  0  0  0  0  0  0  0  0
    3.7027    2.0086   -2.3568 H   0  0  0  0  0  0  0  0  0  0  0  0
    5.2224    0.1518   -0.4550 H   0  0  0  0  0  0  0  0  0  0  0  0
    5.0695   -0.0943   -2.2199 H   0  0  0  0  0  0  0  0  0  0  0  0
    3.6797    0.5613    3.0888 H   0  0  0  0  0  0  0  0  0  0  0  0
    2.2531    1.3407    2.3403 H   0  0  0  0  0  0  0  0  0  0  0  0
    1.6117   -0.2643    4.1759 H   0  0  0  0  0  0  0  0  0  0  0  0
    0.9356   -0.7246    2.6081 H   0  0  0  0  0  0  0  0  0  0  0  0
    2.3451   -1.5818    3.2428 H   0  0  0  0  0  0  0  0  0  0  0  0
   -0.5838   -2.8459   -0.7809 H   0  0  0  0  0  0  0  0  0  0  0  0
   -0.2172   -1.2135   -1.4421 H   0  0  0  0  0  0  0  0  0  0  0  0
   -2.2544    3.3776    1.4051 H   0  0  0  0  0  0  0  0  0  0  0  0
   -3.5751    2.1739    1.4910 H   0  0  0  0  0  0  0  0  0  0  0  0
   -0.7219    1.6847    2.4740 H   0  0  0  0  0  0  0  0  0  0  0  0
   -2.0672    2.1480    3.5303 H   0  0  0  0  0  0  0  0  0  0  0  0
   -2.0995    0.5928    2.6828 H   0  0  0  0  0  0  0  0  0  0  0  0
   -3.9575   -1.7825    0.6421 H   0  0  0  0  0  0  0  0  0  0  0  0
   -5.4563   -0.8555    0.3385 H   0  0  0  0  0  0  0  0  0  0  0  0
   -3.5556   -1.9478   -1.8043 H   0  0  0  0  0  0  0  0  0  0  0  0
   -5.1469   -2.6120   -1.3965 H   0  0  0  0  0  0  0  0  0  0  0  0
   -5.0065   -1.0021   -2.1264 H   0  0  0  0  0  0  0  0  0  0  0  0
  1  2  1  0  0  0  0
  2  3  1  0  0  0  0
  3  4  2  0  0  0  0
  4  5  2  0  0  0  0
  4  6  2  0  0  0  0
  6  7  1  0  0  0  0
  7  8  1  0  0  0  0
  4  9  1  0  0  0  0
  9 10  1  0  0  0  0
 10 11  1  0  0  0  0
 11 12  1  0  0  0  0
 12 13  2  0  0  0  0
 12 14  2  0  0  0  0
 14 15  1  0  0  0  0
 15 16  1  0  0  0  0
 12 17  2  0  0  0  0
 17 18  1  0  0  0  0
 18 19  1  0  0  0  0
  1 20  1  0  0  0  0
  1 21  1  0  0  0  0
  1 22  1  0  0  0  0
  2 23  1  0  0  0  0
  2 24  1  0  0  0  0
  7 25  1  0  0  0  0
  7 26  1  0  0  0  0
  8 27  1  0  0  0  0
  8 28  1  0  0  0  0
  8 29  1  0  0  0  0
 10 30  1  0  0  0  0
 10 31  1  0  0  0  0
 15 32  1  0  0  0  0
 15 33  1  0  0  0  0
 16 34  1  0  0  0  0
 16 35  1  0  0  0  0
 16 36  1  0  0  0  0
 18 37  1  0  0  0  0
 18 38  1  0  0  0  0
 19 39  1  0  0  0  0
 19 40  1  0  0  0  0
 19 41  1  0  0  0  0
M  END
