 xtb: 6.7.1 (edcfbbe)
          04092507313D

 38 37  0     0  0            999 V2000
    4.9854   -2.3721   -1.9977 C   0  0  0  0  0  0  0  0  0  0  0  0
    4.9343   -1.9451   -0.5396 C   0  0  0  0  0  0  0  0  0  0  0  0
    3.6235   -2.1728    0.0165 O   0  0  0  0  0  0  0  0  0  0  0  0
    2.7116   -1.2339   -0.1071 C   0  0  0  0  0  0  0  0  0  0  0  0
    2.8892   -0.1616   -0.6488 O   0  0  0  0  0  0  0  0  0  0  0  0
    1.4037   -1.6324    0.5425 C   0  0  0  0  0  0  0  0  0  0  0  0
    0.2884   -0.7721   -0.0278 C   0  0  0  0  0  0  0  0  0  0  0  0
    0.0609   -1.0218   -1.0685 H   0  0  0  0  0  0  0  0  0  0  0  0
    0.6034    0.7106    0.0416 C   0  0  0  0  0  0  0  0  0  0  0  0
    0.3545    1.4748   -0.8657 O   0  0  0  0  0  0  0  0  0  0  0  0
    1.0383    1.0645    1.2332 O   0  0  0  0  0  0  0  0  0  0  0  0
    1.3589    2.4509    1.4581 C   0  0  0  0  0  0  0  0  0  0  0  0
    2.8386    2.6990    1.2170 C   0  0  0  0  0  0  0  0  0  0  0  0
   -1.2404   -0.9911    0.9465 S   0  0  0  0  0  0  0  0  0  0  0  0
   -2.4693    0.3155   -0.1939 P   0  0  0  0  0  0  0  0  0  0  0  0
   -2.3423    0.1431   -2.1357 S   0  0  0  0  0  0  0  0  0  0  0  0
   -3.9130    0.0046    0.4112 O   0  0  0  0  0  0  0  0  0  0  0  0
   -4.5854   -1.2278    0.1193 C   0  0  0  0  0  0  0  0  0  0  0  0
   -2.2316    1.7802    0.3579 O   0  0  0  0  0  0  0  0  0  0  0  0
   -2.4734    2.1197    1.7412 C   0  0  0  0  0  0  0  0  0  0  0  0
    4.3149   -1.7552   -2.5925 H   0  0  0  0  0  0  0  0  0  0  0  0
    5.9967   -2.2521   -2.3717 H   0  0  0  0  0  0  0  0  0  0  0  0
    4.6880   -3.4125   -2.0944 H   0  0  0  0  0  0  0  0  0  0  0  0
    5.1779   -0.8839   -0.4385 H   0  0  0  0  0  0  0  0  0  0  0  0
    5.5987   -2.5511    0.0762 H   0  0  0  0  0  0  0  0  0  0  0  0
    1.4940   -1.4554    1.6172 H   0  0  0  0  0  0  0  0  0  0  0  0
    1.2114   -2.6921    0.3819 H   0  0  0  0  0  0  0  0  0  0  0  0
    0.7470    3.0593    0.7854 H   0  0  0  0  0  0  0  0  0  0  0  0
    1.0872    2.6329    2.4986 H   0  0  0  0  0  0  0  0  0  0  0  0
    3.0545    3.7538    1.3498 H   0  0  0  0  0  0  0  0  0  0  0  0
    3.4360    2.1167    1.9129 H   0  0  0  0  0  0  0  0  0  0  0  0
    3.0986    2.4048    0.2019 H   0  0  0  0  0  0  0  0  0  0  0  0
   -4.5138   -1.4493   -0.9465 H   0  0  0  0  0  0  0  0  0  0  0  0
   -5.6215   -1.0705    0.4077 H   0  0  0  0  0  0  0  0  0  0  0  0
   -4.1399   -2.0345    0.7000 H   0  0  0  0  0  0  0  0  0  0  0  0
   -2.0918    3.1310    1.8559 H   0  0  0  0  0  0  0  0  0  0  0  0
   -1.9436    1.4261    2.3951 H   0  0  0  0  0  0  0  0  0  0  0  0
   -3.5415    2.0821    1.9438 H   0  0  0  0  0  0  0  0  0  0  0  0
  1  2  1  0  0  0  0
  2  3  1  0  0  0  0
  3  4  4  0  0  0  0
  4  5  2  0  0  0  0
  4  6  1  0  0  0  0
  6  7  1  0  0  0  0
  7  8  1  0  0  0  0
  7  9  1  0  0  0  0
  9 10  2  0  0  0  0
  9 11  1  0  0  0  0
 11 12  1  0  0  0  0
 12 13  1  0  0  0  0
  7 14  1  0  0  0  0
 14 15  1  0  0  0  0
 15 16  2  0  0  0  0
 15 17  2  0  0  0  0
 17 18  1  0  0  0  0
 15 19  2  0  0  0  0
 19 20  1  0  0  0  0
  1 21  1  0  0  0  0
  1 22  1  0  0  0  0
  1 23  1  0  0  0  0
  2 24  1  0  0  0  0
  2 25  1  0  0  0  0
  6 26  1  0  0  0  0
  6 27  1  0  0  0  0
 12 28  1  0  0  0  0
 12 29  1  0  0  0  0
 13 30  1  0  0  0  0
 13 31  1  0  0  0  0
 13 32  1  0  0  0  0
 18 33  1  0  0  0  0
 18 34  1  0  0  0  0
 18 35  1  0  0  0  0
 20 36  1  0  0  0  0
 20 37  1  0  0  0  0
 20 38  1  0  0  0  0
M  END
