 xtb: 6.7.1 (edcfbbe)
          04092507313D

 38 37  0     0  0            999 V2000
    1.9973   -3.3154   -2.8007 C   0  0  0  0  0  0  0  0  0  0  0  0
    3.0440   -3.0739   -1.7245 C   0  0  0  0  0  0  0  0  0  0  0  0
    2.8795   -1.7625   -1.1512 O   0  0  0  0  0  0  0  0  0  0  0  0
    2.0860   -1.6270   -0.1095 C   0  0  0  0  0  0  0  0  0  0  0  0
    1.5326   -2.5380    0.4647 O   0  0  0  0  0  0  0  0  0  0  0  0
    1.9156   -0.1655    0.2650 C   0  0  0  0  0  0  0  0  0  0  0  0
    1.0189    0.4964   -0.7853 C   0  0  0  0  0  0  0  0  0  0  0  0
    1.5520    0.5651   -1.7376 H   0  0  0  0  0  0  0  0  0  0  0  0
    0.5666    1.8848   -0.3646 C   0  0  0  0  0  0  0  0  0  0  0  0
   -0.6031    2.2117   -0.3535 O   0  0  0  0  0  0  0  0  0  0  0  0
    1.5761    2.6472   -0.0524 O   0  0  0  0  0  0  0  0  0  0  0  0
    1.3105    3.9767    0.4475 C   0  0  0  0  0  0  0  0  0  0  0  0
    1.2114    3.9563    1.9636 C   0  0  0  0  0  0  0  0  0  0  0  0
   -0.4683   -0.4904   -1.1604 S   0  0  0  0  0  0  0  0  0  0  0  0
   -1.7196   -0.0277    0.4982 P   0  0  0  0  0  0  0  0  0  0  0  0
   -0.9823    0.6101    2.1961 S   0  0  0  0  0  0  0  0  0  0  0  0
   -2.9487    0.8233   -0.0090 O   0  0  0  0  0  0  0  0  0  0  0  0
   -3.6912    0.4945   -1.1983 C   0  0  0  0  0  0  0  0  0  0  0  0
   -2.4472   -1.4552    0.6655 O   0  0  0  0  0  0  0  0  0  0  0  0
   -1.7844   -2.5545    1.2941 C   0  0  0  0  0  0  0  0  0  0  0  0
    2.0805   -2.5650   -3.5814 H   0  0  0  0  0  0  0  0  0  0  0  0
    2.1449   -4.2999   -3.2317 H   0  0  0  0  0  0  0  0  0  0  0  0
    0.9994   -3.2608   -2.3708 H   0  0  0  0  0  0  0  0  0  0  0  0
    4.0515   -3.0711   -2.1404 H   0  0  0  0  0  0  0  0  0  0  0  0
    2.9620   -3.8169   -0.9263 H   0  0  0  0  0  0  0  0  0  0  0  0
    2.8820    0.3371    0.2702 H   0  0  0  0  0  0  0  0  0  0  0  0
    1.4567   -0.1087    1.2540 H   0  0  0  0  0  0  0  0  0  0  0  0
    2.1601    4.5697    0.1092 H   0  0  0  0  0  0  0  0  0  0  0  0
    0.3820    4.3400   -0.0002 H   0  0  0  0  0  0  0  0  0  0  0  0
    2.1364    3.5886    2.3978 H   0  0  0  0  0  0  0  0  0  0  0  0
    1.0191    4.9609    2.3249 H   0  0  0  0  0  0  0  0  0  0  0  0
    0.3972    3.3058    2.2795 H   0  0  0  0  0  0  0  0  0  0  0  0
   -3.0312    0.5180   -2.0655 H   0  0  0  0  0  0  0  0  0  0  0  0
   -4.4527    1.2662   -1.2749 H   0  0  0  0  0  0  0  0  0  0  0  0
   -4.1424   -0.4909   -1.0949 H   0  0  0  0  0  0  0  0  0  0  0  0
   -2.4786   -3.3881    1.2344 H   0  0  0  0  0  0  0  0  0  0  0  0
   -1.5656   -2.3093    2.3342 H   0  0  0  0  0  0  0  0  0  0  0  0
   -0.8514   -2.7931    0.7810 H   0  0  0  0  0  0  0  0  0  0  0  0
  1  2  1  0  0  0  0
  2  3  1  0  0  0  0
  3  4  1  0  0  0  0
  4  5  2  0  0  0  0
  4  6  1  0  0  0  0
  6  7  1  0  0  0  0
  7  8  1  0  0  0  0
  7  9  1  0  0  0  0
  9 10  2  0  0  0  0
  9 11  4  0  0  0  0
 11 12  1  0  0  0  0
 12 13  1  0  0  0  0
  7 14  1  0  0  0  0
 14 15  1  0  0  0  0
 15 16  2  0  0  0  0
 15 17  2  0  0  0  0
 17 18  1  0  0  0  0
 15 19  1  0  0  0  0
 19 20  1  0  0  0  0
  1 21  1  0  0  0  0
  1 22  1  0  0  0  0
  1 23  1  0  0  0  0
  2 24  1  0  0  0  0
  2 25  1  0  0  0  0
  6 26  1  0  0  0  0
  6 27  1  0  0  0  0
 12 28  1  0  0  0  0
 12 29  1  0  0  0  0
 13 30  1  0  0  0  0
 13 31  1  0  0  0  0
 13 32  1  0  0  0  0
 18 33  1  0  0  0  0
 18 34  1  0  0  0  0
 18 35  1  0  0  0  0
 20 36  1  0  0  0  0
 20 37  1  0  0  0  0
 20 38  1  0  0  0  0
M  END
