 xtb: 6.7.1 (edcfbbe)
          04032520063D

 19 19  0     0  0            999 V2000
    1.9503   -0.0001    0.7076 C   0  0  0  0  0  0  0  0  0  0  0  0
    1.1002   -0.0000   -0.4659 N   0  0  0  0  0  0  0  0  0  0  0  0
    0.2719    1.1867   -0.5983 C   0  0  0  0  0  0  0  0  0  0  0  0
   -0.9371    1.1962    0.3465 C   0  0  0  0  0  0  0  0  0  0  0  0
   -1.7270   -0.0000    0.0995 N   0  0  0  0  0  0  0  0  0  0  0  0
   -0.9370   -1.1961    0.3466 C   0  0  0  0  0  0  0  0  0  0  0  0
    0.2718   -1.1866   -0.5984 C   0  0  0  0  0  0  0  0  0  0  0  0
    1.4100   -0.0009    1.6648 H   0  0  0  0  0  0  0  0  0  0  0  0
    2.5847    0.8844    0.6733 H   0  0  0  0  0  0  0  0  0  0  0  0
    2.5854   -0.8841    0.6726 H   0  0  0  0  0  0  0  0  0  0  0  0
    0.8895    2.0697   -0.4268 H   0  0  0  0  0  0  0  0  0  0  0  0
   -0.0971    1.2068   -1.6271 H   0  0  0  0  0  0  0  0  0  0  0  0
   -0.5884    1.2575    1.3941 H   0  0  0  0  0  0  0  0  0  0  0  0
   -1.5555    2.0716    0.1412 H   0  0  0  0  0  0  0  0  0  0  0  0
   -2.5539    0.0000    0.6878 H   0  0  0  0  0  0  0  0  0  0  0  0
   -0.5882   -1.2572    1.3941 H   0  0  0  0  0  0  0  0  0  0  0  0
   -1.5553   -2.0716    0.1415 H   0  0  0  0  0  0  0  0  0  0  0  0
    0.8895   -2.0697   -0.4272 H   0  0  0  0  0  0  0  0  0  0  0  0
   -0.0973   -1.2065   -1.6272 H   0  0  0  0  0  0  0  0  0  0  0  0
  1  2  1  0  0  0  0
  2  3  1  0  0  0  0
  3  4  1  0  0  0  0
  4  5  1  0  0  0  0
  5  6  1  0  0  0  0
  2  7  1  0  0  0  0
  6  7  1  0  0  0  0
  1  8  1  0  0  0  0
  1  9  1  0  0  0  0
  1 10  1  0  0  0  0
  3 11  1  0  0  0  0
  3 12  1  0  0  0  0
  4 13  1  0  0  0  0
  4 14  1  0  0  0  0
  5 15  1  0  0  0  0
  6 16  1  0  0  0  0
  6 17  1  0  0  0  0
  7 18  1  0  0  0  0
  7 19  1  0  0  0  0
M  END
