 xtb: 6.7.1 (edcfbbe)
          04092507313D

 38 37  0     0  0            999 V2000
    3.1300   -4.6577   -0.7069 C   0  0  0  0  0  0  0  0  0  0  0  0
    3.3192   -3.6274   -1.8090 C   0  0  0  0  0  0  0  0  0  0  0  0
    3.3341   -2.2927   -1.2646 O   0  0  0  0  0  0  0  0  0  0  0  0
    2.1870   -1.6610   -1.1174 C   0  0  0  0  0  0  0  0  0  0  0  0
    1.1073   -2.1066   -1.4406 O   0  0  0  0  0  0  0  0  0  0  0  0
    2.3914   -0.2948   -0.4940 C   0  0  0  0  0  0  0  0  0  0  0  0
    1.0584    0.4072   -0.3075 C   0  0  0  0  0  0  0  0  0  0  0  0
    0.4662    0.3167   -1.2315 H   0  0  0  0  0  0  0  0  0  0  0  0
    1.1804    1.8932   -0.0321 C   0  0  0  0  0  0  0  0  0  0  0  0
    2.1259    2.5594   -0.3858 O   0  0  0  0  0  0  0  0  0  0  0  0
    0.1174    2.3576    0.5896 O   0  0  0  0  0  0  0  0  0  0  0  0
    0.0424    3.7755    0.8501 C   0  0  0  0  0  0  0  0  0  0  0  0
   -0.8513    4.0007    2.0534 C   0  0  0  0  0  0  0  0  0  0  0  0
    0.0763   -0.4031    0.9954 S   0  0  0  0  0  0  0  0  0  0  0  0
   -1.8459    0.1674    0.2893 P   0  0  0  0  0  0  0  0  0  0  0  0
   -1.9756    0.9558   -1.4983 S   0  0  0  0  0  0  0  0  0  0  0  0
   -2.6872   -1.1864    0.4691 O   0  0  0  0  0  0  0  0  0  0  0  0
   -2.4578   -2.2987   -0.4018 C   0  0  0  0  0  0  0  0  0  0  0  0
   -2.5020    1.0710    1.4028 O   0  0  0  0  0  0  0  0  0  0  0  0
   -2.5751    0.6449    2.7788 C   0  0  0  0  0  0  0  0  0  0  0  0
    3.1824   -5.6535   -1.1344 H   0  0  0  0  0  0  0  0  0  0  0  0
    3.9069   -4.5480    0.0445 H   0  0  0  0  0  0  0  0  0  0  0  0
    2.1593   -4.5262   -0.2347 H   0  0  0  0  0  0  0  0  0  0  0  0
    2.5152   -3.6948   -2.5473 H   0  0  0  0  0  0  0  0  0  0  0  0
    4.2899   -3.7354   -2.2928 H   0  0  0  0  0  0  0  0  0  0  0  0
    3.0292    0.3077   -1.1447 H   0  0  0  0  0  0  0  0  0  0  0  0
    2.9089   -0.4187    0.4585 H   0  0  0  0  0  0  0  0  0  0  0  0
    1.0599    4.1428    1.0136 H   0  0  0  0  0  0  0  0  0  0  0  0
   -0.3675    4.2489   -0.0470 H   0  0  0  0  0  0  0  0  0  0  0  0
   -0.9222    5.0658    2.2469 H   0  0  0  0  0  0  0  0  0  0  0  0
   -1.8426    3.6053    1.8510 H   0  0  0  0  0  0  0  0  0  0  0  0
   -0.4400    3.5029    2.9268 H   0  0  0  0  0  0  0  0  0  0  0  0
   -3.0656   -3.1093   -0.0092 H   0  0  0  0  0  0  0  0  0  0  0  0
   -1.4018   -2.5740   -0.4036 H   0  0  0  0  0  0  0  0  0  0  0  0
   -2.7633   -2.0446   -1.4174 H   0  0  0  0  0  0  0  0  0  0  0  0
   -2.9260    1.5134    3.3301 H   0  0  0  0  0  0  0  0  0  0  0  0
   -1.5879    0.3384    3.1253 H   0  0  0  0  0  0  0  0  0  0  0  0
   -3.2762   -0.1820    2.8714 H   0  0  0  0  0  0  0  0  0  0  0  0
  1  2  1  0  0  0  0
  2  3  1  0  0  0  0
  3  4  1  0  0  0  0
  4  5  2  0  0  0  0
  4  6  1  0  0  0  0
  6  7  1  0  0  0  0
  7  8  1  0  0  0  0
  7  9  1  0  0  0  0
  9 10  2  0  0  0  0
  9 11  1  0  0  0  0
 11 12  1  0  0  0  0
 12 13  1  0  0  0  0
  7 14  1  0  0  0  0
 14 15  1  0  0  0  0
 15 16  2  0  0  0  0
 15 17  1  0  0  0  0
 17 18  1  0  0  0  0
 15 19  2  0  0  0  0
 19 20  1  0  0  0  0
  1 21  1  0  0  0  0
  1 22  1  0  0  0  0
  1 23  1  0  0  0  0
  2 24  1  0  0  0  0
  2 25  1  0  0  0  0
  6 26  1  0  0  0  0
  6 27  1  0  0  0  0
 12 28  1  0  0  0  0
 12 29  1  0  0  0  0
 13 30  1  0  0  0  0
 13 31  1  0  0  0  0
 13 32  1  0  0  0  0
 18 33  1  0  0  0  0
 18 34  1  0  0  0  0
 18 35  1  0  0  0  0
 20 36  1  0  0  0  0
 20 37  1  0  0  0  0
 20 38  1  0  0  0  0
M  END
