 xtb: 6.7.1 (edcfbbe)
          04092505203D

 41 40  0     0  0            999 V2000
    3.8684   -1.8269   -1.8153 C   0  0  0  0  0  0  0  0  0  0  0  0
    4.1406   -0.3357   -1.8270 C   0  0  0  0  0  0  0  0  0  0  0  0
    3.5940    0.3319   -0.6809 O   0  0  0  0  0  0  0  0  0  0  0  0
    2.0291    0.4979   -0.4149 P   0  0  0  0  0  0  0  0  0  0  0  0
    1.0219    0.8669   -2.0542 S   0  0  0  0  0  0  0  0  0  0  0  0
    2.0321    1.7043    0.5906 O   0  0  0  0  0  0  0  0  0  0  0  0
    2.2799    1.6477    2.0148 C   0  0  0  0  0  0  0  0  0  0  0  0
    3.5955    0.9819    2.3512 C   0  0  0  0  0  0  0  0  0  0  0  0
    1.4641   -1.2433    0.6764 S   0  0  0  0  0  0  0  0  0  0  0  0
    0.2430   -1.9680   -0.4607 C   0  0  0  0  0  0  0  0  0  0  0  0
   -1.4128   -2.1471    0.2590 S   0  0  0  0  0  0  0  0  0  0  0  0
   -2.1068   -0.1665    0.1684 P   0  0  0  0  0  0  0  0  0  0  0  0
   -1.0913    1.2782    1.0378 S   0  0  0  0  0  0  0  0  0  0  0  0
   -3.5979   -0.2974    0.7001 O   0  0  0  0  0  0  0  0  0  0  0  0
   -3.9399   -0.1379    2.0876 C   0  0  0  0  0  0  0  0  0  0  0  0
   -3.3823   -1.2579    2.9417 C   0  0  0  0  0  0  0  0  0  0  0  0
   -2.3076   -0.0435   -1.3970 O   0  0  0  0  0  0  0  0  0  0  0  0
   -2.5045    1.2154   -2.0672 C   0  0  0  0  0  0  0  0  0  0  0  0
   -3.8205    1.8598   -1.6885 C   0  0  0  0  0  0  0  0  0  0  0  0
    4.1632   -2.2579   -0.8620 H   0  0  0  0  0  0  0  0  0  0  0  0
    2.8081   -2.0131   -1.9783 H   0  0  0  0  0  0  0  0  0  0  0  0
    4.4325   -2.2983   -2.6137 H   0  0  0  0  0  0  0  0  0  0  0  0
    3.7233    0.1248   -2.7287 H   0  0  0  0  0  0  0  0  0  0  0  0
    5.2087   -0.1226   -1.7649 H   0  0  0  0  0  0  0  0  0  0  0  0
    2.2661    2.6985    2.3076 H   0  0  0  0  0  0  0  0  0  0  0  0
    1.4372    1.1318    2.4833 H   0  0  0  0  0  0  0  0  0  0  0  0
    4.4094    1.4727    1.8239 H   0  0  0  0  0  0  0  0  0  0  0  0
    3.7627    1.0513    3.4215 H   0  0  0  0  0  0  0  0  0  0  0  0
    3.5697   -0.0683    2.0641 H   0  0  0  0  0  0  0  0  0  0  0  0
    0.5642   -2.9803   -0.6918 H   0  0  0  0  0  0  0  0  0  0  0  0
    0.1854   -1.3458   -1.3587 H   0  0  0  0  0  0  0  0  0  0  0  0
   -3.5594    0.8308    2.4281 H   0  0  0  0  0  0  0  0  0  0  0  0
   -5.0306   -0.1315    2.0891 H   0  0  0  0  0  0  0  0  0  0  0  0
   -2.2941   -1.2037    2.9600 H   0  0  0  0  0  0  0  0  0  0  0  0
   -3.7570   -1.1588    3.9554 H   0  0  0  0  0  0  0  0  0  0  0  0
   -3.6766   -2.2233    2.5379 H   0  0  0  0  0  0  0  0  0  0  0  0
   -1.6617    1.8728   -1.8287 H   0  0  0  0  0  0  0  0  0  0  0  0
   -2.4640    0.9536   -3.1255 H   0  0  0  0  0  0  0  0  0  0  0  0
   -3.8017    2.1537   -0.6396 H   0  0  0  0  0  0  0  0  0  0  0  0
   -3.9748    2.7435   -2.2998 H   0  0  0  0  0  0  0  0  0  0  0  0
   -4.6378    1.1605   -1.8446 H   0  0  0  0  0  0  0  0  0  0  0  0
  1  2  1  0  0  0  0
  2  3  1  0  0  0  0
  3  4  2  0  0  0  0
  4  5  2  0  0  0  0
  4  6  2  0  0  0  0
  6  7  1  0  0  0  0
  7  8  1  0  0  0  0
  4  9  1  0  0  0  0
  9 10  1  0  0  0  0
 10 11  1  0  0  0  0
 11 12  1  0  0  0  0
 12 13  2  0  0  0  0
 12 14  2  0  0  0  0
 14 15  1  0  0  0  0
 15 16  1  0  0  0  0
 12 17  2  0  0  0  0
 17 18  1  0  0  0  0
 18 19  1  0  0  0  0
  1 20  1  0  0  0  0
  1 21  1  0  0  0  0
  1 22  1  0  0  0  0
  2 23  1  0  0  0  0
  2 24  1  0  0  0  0
  7 25  1  0  0  0  0
  7 26  1  0  0  0  0
  8 27  1  0  0  0  0
  8 28  1  0  0  0  0
  8 29  1  0  0  0  0
 10 30  1  0  0  0  0
 10 31  1  0  0  0  0
 15 32  1  0  0  0  0
 15 33  1  0  0  0  0
 16 34  1  0  0  0  0
 16 35  1  0  0  0  0
 16 36  1  0  0  0  0
 18 37  1  0  0  0  0
 18 38  1  0  0  0  0
 19 39  1  0  0  0  0
 19 40  1  0  0  0  0
 19 41  1  0  0  0  0
M  END
