 xtb: 6.7.1 (edcfbbe)
          04092507313D

 38 37  0     0  0            999 V2000
    4.0922   -2.6025    0.7520 C   0  0  0  0  0  0  0  0  0  0  0  0
    2.5865   -2.6823    0.5612 C   0  0  0  0  0  0  0  0  0  0  0  0
    2.1773   -1.9638   -0.6180 O   0  0  0  0  0  0  0  0  0  0  0  0
    2.0026   -0.6643   -0.5394 C   0  0  0  0  0  0  0  0  0  0  0  0
    2.1339    0.0034    0.4667 O   0  0  0  0  0  0  0  0  0  0  0  0
    1.6175   -0.0584   -1.8765 C   0  0  0  0  0  0  0  0  0  0  0  0
    0.3616    0.8054   -1.7302 C   0  0  0  0  0  0  0  0  0  0  0  0
    0.2732    1.4807   -2.5844 H   0  0  0  0  0  0  0  0  0  0  0  0
    0.3985    1.6183   -0.4519 C   0  0  0  0  0  0  0  0  0  0  0  0
   -0.4156    1.4598    0.4429 O   0  0  0  0  0  0  0  0  0  0  0  0
    1.3306    2.5206   -0.4609 O   0  0  0  0  0  0  0  0  0  0  0  0
    1.5314    3.2994    0.7393 C   0  0  0  0  0  0  0  0  0  0  0  0
    2.6130    4.3207    0.4532 C   0  0  0  0  0  0  0  0  0  0  0  0
   -1.1675   -0.1858   -1.7497 S   0  0  0  0  0  0  0  0  0  0  0  0
   -1.7400   -0.5659    0.2721 P   0  0  0  0  0  0  0  0  0  0  0  0
   -0.5832   -1.1985    1.7209 S   0  0  0  0  0  0  0  0  0  0  0  0
   -2.9028    0.4752    0.6484 O   0  0  0  0  0  0  0  0  0  0  0  0
   -2.8533    1.4640    1.6741 C   0  0  0  0  0  0  0  0  0  0  0  0
   -2.6581   -1.8367   -0.0691 O   0  0  0  0  0  0  0  0  0  0  0  0
   -3.7681   -1.8241   -0.9812 C   0  0  0  0  0  0  0  0  0  0  0  0
    4.3742   -3.2117    1.6041 H   0  0  0  0  0  0  0  0  0  0  0  0
    4.6013   -2.9667   -0.1363 H   0  0  0  0  0  0  0  0  0  0  0  0
    4.3907   -1.5739    0.9406 H   0  0  0  0  0  0  0  0  0  0  0  0
    2.0538   -2.2684    1.4232 H   0  0  0  0  0  0  0  0  0  0  0  0
    2.2577   -3.7054    0.3791 H   0  0  0  0  0  0  0  0  0  0  0  0
    1.4522   -0.8474   -2.6083 H   0  0  0  0  0  0  0  0  0  0  0  0
    2.4448    0.5790   -2.1958 H   0  0  0  0  0  0  0  0  0  0  0  0
    0.5814    3.7702    1.0089 H   0  0  0  0  0  0  0  0  0  0  0  0
    1.8175    2.6048    1.5353 H   0  0  0  0  0  0  0  0  0  0  0  0
    3.5365    3.8176    0.1845 H   0  0  0  0  0  0  0  0  0  0  0  0
    2.3103    4.9669   -0.3651 H   0  0  0  0  0  0  0  0  0  0  0  0
    2.7790    4.9203    1.3418 H   0  0  0  0  0  0  0  0  0  0  0  0
   -3.8354    1.4607    2.1431 H   0  0  0  0  0  0  0  0  0  0  0  0
   -2.6395    2.4340    1.2287 H   0  0  0  0  0  0  0  0  0  0  0  0
   -2.0820    1.2155    2.4042 H   0  0  0  0  0  0  0  0  0  0  0  0
   -4.2922   -2.7595   -0.8012 H   0  0  0  0  0  0  0  0  0  0  0  0
   -3.4041   -1.7799   -2.0073 H   0  0  0  0  0  0  0  0  0  0  0  0
   -4.4164   -0.9745   -0.7745 H   0  0  0  0  0  0  0  0  0  0  0  0
  1  2  1  0  0  0  0
  2  3  1  0  0  0  0
  3  4  4  0  0  0  0
  4  5  2  0  0  0  0
  4  6  1  0  0  0  0
  6  7  1  0  0  0  0
  7  8  1  0  0  0  0
  7  9  1  0  0  0  0
  9 10  2  0  0  0  0
  9 11  4  0  0  0  0
 11 12  1  0  0  0  0
 12 13  1  0  0  0  0
  7 14  1  0  0  0  0
 14 15  1  0  0  0  0
 15 16  2  0  0  0  0
 15 17  1  0  0  0  0
 17 18  1  0  0  0  0
 15 19  1  0  0  0  0
 19 20  1  0  0  0  0
  1 21  1  0  0  0  0
  1 22  1  0  0  0  0
  1 23  1  0  0  0  0
  2 24  1  0  0  0  0
  2 25  1  0  0  0  0
  6 26  1  0  0  0  0
  6 27  1  0  0  0  0
 12 28  1  0  0  0  0
 12 29  1  0  0  0  0
 13 30  1  0  0  0  0
 13 31  1  0  0  0  0
 13 32  1  0  0  0  0
 18 33  1  0  0  0  0
 18 34  1  0  0  0  0
 18 35  1  0  0  0  0
 20 36  1  0  0  0  0
 20 37  1  0  0  0  0
 20 38  1  0  0  0  0
M  END
