 xtb: 6.7.1 (edcfbbe)
          04092505213D

 41 40  0     0  0            999 V2000
    1.3874   -1.9684    1.8147 C   0  0  0  0  0  0  0  0  0  0  0  0
    2.8770   -1.7191    1.7029 C   0  0  0  0  0  0  0  0  0  0  0  0
    3.1763   -0.4420    1.1160 O   0  0  0  0  0  0  0  0  0  0  0  0
    2.8148   -0.0675   -0.3898 P   0  0  0  0  0  0  0  0  0  0  0  0
    3.0044   -1.5095   -1.6992 S   0  0  0  0  0  0  0  0  0  0  0  0
    3.8268    1.1093   -0.6774 O   0  0  0  0  0  0  0  0  0  0  0  0
    4.3051    2.0680    0.2967 C   0  0  0  0  0  0  0  0  0  0  0  0
    3.1858    2.8788    0.9141 C   0  0  0  0  0  0  0  0  0  0  0  0
    0.8894    0.8756   -0.3349 S   0  0  0  0  0  0  0  0  0  0  0  0
    0.0078   -0.0928   -1.5792 C   0  0  0  0  0  0  0  0  0  0  0  0
   -1.0856   -1.3557   -0.8708 S   0  0  0  0  0  0  0  0  0  0  0  0
   -2.4078   -0.0101    0.0831 P   0  0  0  0  0  0  0  0  0  0  0  0
   -2.7842    1.6406   -0.9194 S   0  0  0  0  0  0  0  0  0  0  0  0
   -1.6813    0.0979    1.4861 O   0  0  0  0  0  0  0  0  0  0  0  0
   -2.3040    0.5653    2.7031 C   0  0  0  0  0  0  0  0  0  0  0  0
   -2.6851    2.0297    2.6318 C   0  0  0  0  0  0  0  0  0  0  0  0
   -3.6997   -0.8560    0.4609 O   0  0  0  0  0  0  0  0  0  0  0  0
   -4.8265   -0.9721   -0.4243 C   0  0  0  0  0  0  0  0  0  0  0  0
   -4.5026   -1.8084   -1.6451 C   0  0  0  0  0  0  0  0  0  0  0  0
    1.2138   -2.8634    2.4032 H   0  0  0  0  0  0  0  0  0  0  0  0
    0.8921   -1.1239    2.2886 H   0  0  0  0  0  0  0  0  0  0  0  0
    0.9582   -2.1168    0.8245 H   0  0  0  0  0  0  0  0  0  0  0  0
    3.3502   -2.4985    1.0979 H   0  0  0  0  0  0  0  0  0  0  0  0
    3.3519   -1.6689    2.6841 H   0  0  0  0  0  0  0  0  0  0  0  0
    4.8621    1.5254    1.0630 H   0  0  0  0  0  0  0  0  0  0  0  0
    4.9834    2.6946   -0.2842 H   0  0  0  0  0  0  0  0  0  0  0  0
    2.6063    3.3798    0.1427 H   0  0  0  0  0  0  0  0  0  0  0  0
    2.5210    2.2297    1.4818 H   0  0  0  0  0  0  0  0  0  0  0  0
    3.6113    3.6216    1.5818 H   0  0  0  0  0  0  0  0  0  0  0  0
    0.7291   -0.6199   -2.2065 H   0  0  0  0  0  0  0  0  0  0  0  0
   -0.5936    0.6067   -2.1586 H   0  0  0  0  0  0  0  0  0  0  0  0
   -3.1763   -0.0597    2.9066 H   0  0  0  0  0  0  0  0  0  0  0  0
   -1.5389    0.3918    3.4619 H   0  0  0  0  0  0  0  0  0  0  0  0
   -1.8232    2.6292    2.3481 H   0  0  0  0  0  0  0  0  0  0  0  0
   -3.4680    2.1825    1.8910 H   0  0  0  0  0  0  0  0  0  0  0  0
   -3.0474    2.3552    3.6019 H   0  0  0  0  0  0  0  0  0  0  0  0
   -5.5976   -1.4377    0.1908 H   0  0  0  0  0  0  0  0  0  0  0  0
   -5.1397    0.0344   -0.7202 H   0  0  0  0  0  0  0  0  0  0  0  0
   -4.0854   -2.7670   -1.3473 H   0  0  0  0  0  0  0  0  0  0  0  0
   -5.4075   -1.9705   -2.2217 H   0  0  0  0  0  0  0  0  0  0  0  0
   -3.7754   -1.2899   -2.2687 H   0  0  0  0  0  0  0  0  0  0  0  0
  1  2  1  0  0  0  0
  2  3  1  0  0  0  0
  3  4  2  0  0  0  0
  4  5  2  0  0  0  0
  4  6  2  0  0  0  0
  6  7  1  0  0  0  0
  7  8  1  0  0  0  0
  4  9  1  0  0  0  0
  9 10  1  0  0  0  0
 10 11  1  0  0  0  0
 11 12  1  0  0  0  0
 12 13  2  0  0  0  0
 12 14  2  0  0  0  0
 14 15  1  0  0  0  0
 15 16  1  0  0  0  0
 12 17  2  0  0  0  0
 17 18  1  0  0  0  0
 18 19  1  0  0  0  0
  1 20  1  0  0  0  0
  1 21  1  0  0  0  0
  1 22  1  0  0  0  0
  2 23  1  0  0  0  0
  2 24  1  0  0  0  0
  7 25  1  0  0  0  0
  7 26  1  0  0  0  0
  8 27  1  0  0  0  0
  8 28  1  0  0  0  0
  8 29  1  0  0  0  0
 10 30  1  0  0  0  0
 10 31  1  0  0  0  0
 15 32  1  0  0  0  0
 15 33  1  0  0  0  0
 16 34  1  0  0  0  0
 16 35  1  0  0  0  0
 16 36  1  0  0  0  0
 18 37  1  0  0  0  0
 18 38  1  0  0  0  0
 19 39  1  0  0  0  0
 19 40  1  0  0  0  0
 19 41  1  0  0  0  0
M  END
