 xtb: 6.7.1 (edcfbbe)
          04092505213D

 41 40  0     0  0            999 V2000
    4.2159   -1.3663   -2.5104 C   0  0  0  0  0  0  0  0  0  0  0  0
    4.8339   -1.2073   -1.1366 C   0  0  0  0  0  0  0  0  0  0  0  0
    3.8486   -1.2224   -0.0870 O   0  0  0  0  0  0  0  0  0  0  0  0
    2.7551   -0.0817    0.0788 P   0  0  0  0  0  0  0  0  0  0  0  0
    3.3664    1.7500   -0.2260 S   0  0  0  0  0  0  0  0  0  0  0  0
    2.2502   -0.2808    1.5576 O   0  0  0  0  0  0  0  0  0  0  0  0
    1.7324   -1.5286    2.0813 C   0  0  0  0  0  0  0  0  0  0  0  0
    2.8187   -2.3056    2.7959 C   0  0  0  0  0  0  0  0  0  0  0  0
    1.1364   -0.7353   -1.1489 S   0  0  0  0  0  0  0  0  0  0  0  0
    0.1780    0.7873   -1.0017 C   0  0  0  0  0  0  0  0  0  0  0  0
   -0.6522    0.9585    0.6053 S   0  0  0  0  0  0  0  0  0  0  0  0
   -2.6692    0.6396    0.0212 P   0  0  0  0  0  0  0  0  0  0  0  0
   -2.9894    0.5295   -1.9158 S   0  0  0  0  0  0  0  0  0  0  0  0
   -3.2814    1.8592    0.8218 O   0  0  0  0  0  0  0  0  0  0  0  0
   -4.6498    1.9268    1.2811 C   0  0  0  0  0  0  0  0  0  0  0  0
   -5.6434    1.8799    0.1387 C   0  0  0  0  0  0  0  0  0  0  0  0
   -3.2385   -0.5964    0.8475 O   0  0  0  0  0  0  0  0  0  0  0  0
   -3.2308   -1.9382    0.3316 C   0  0  0  0  0  0  0  0  0  0  0  0
   -1.8463   -2.5502    0.3829 C   0  0  0  0  0  0  0  0  0  0  0  0
    3.5611   -2.2337   -2.5339 H   0  0  0  0  0  0  0  0  0  0  0  0
    3.6350   -0.4808   -2.7637 H   0  0  0  0  0  0  0  0  0  0  0  0
    5.0049   -1.4889   -3.2454 H   0  0  0  0  0  0  0  0  0  0  0  0
    5.3915   -0.2681   -1.0714 H   0  0  0  0  0  0  0  0  0  0  0  0
    5.4876   -2.0452   -0.8903 H   0  0  0  0  0  0  0  0  0  0  0  0
    0.9404   -1.2212    2.7672 H   0  0  0  0  0  0  0  0  0  0  0  0
    1.3083   -2.1097    1.2576 H   0  0  0  0  0  0  0  0  0  0  0  0
    2.3838   -3.1944    3.2422 H   0  0  0  0  0  0  0  0  0  0  0  0
    3.5949   -2.5986    2.0943 H   0  0  0  0  0  0  0  0  0  0  0  0
    3.2633   -1.6930    3.5754 H   0  0  0  0  0  0  0  0  0  0  0  0
   -0.5775    0.7752   -1.7918 H   0  0  0  0  0  0  0  0  0  0  0  0
    0.8562    1.6338   -1.1150 H   0  0  0  0  0  0  0  0  0  0  0  0
   -4.8184    1.1061    1.9814 H   0  0  0  0  0  0  0  0  0  0  0  0
   -4.6916    2.8809    1.8090 H   0  0  0  0  0  0  0  0  0  0  0  0
   -5.4301    2.6675   -0.5805 H   0  0  0  0  0  0  0  0  0  0  0  0
   -5.5832    0.9206   -0.3737 H   0  0  0  0  0  0  0  0  0  0  0  0
   -6.6480    2.0118    0.5281 H   0  0  0  0  0  0  0  0  0  0  0  0
   -3.9312   -2.4726    0.9749 H   0  0  0  0  0  0  0  0  0  0  0  0
   -3.6073   -1.9186   -0.6964 H   0  0  0  0  0  0  0  0  0  0  0  0
   -1.4388   -2.4718    1.3876 H   0  0  0  0  0  0  0  0  0  0  0  0
   -1.9043   -3.5956    0.0978 H   0  0  0  0  0  0  0  0  0  0  0  0
   -1.1835   -2.0359   -0.3124 H   0  0  0  0  0  0  0  0  0  0  0  0
  1  2  1  0  0  0  0
  2  3  1  0  0  0  0
  3  4  2  0  0  0  0
  4  5  2  0  0  0  0
  4  6  2  0  0  0  0
  6  7  1  0  0  0  0
  7  8  1  0  0  0  0
  4  9  1  0  0  0  0
  9 10  1  0  0  0  0
 10 11  1  0  0  0  0
 11 12  1  0  0  0  0
 12 13  2  0  0  0  0
 12 14  2  0  0  0  0
 14 15  1  0  0  0  0
 15 16  1  0  0  0  0
 12 17  2  0  0  0  0
 17 18  1  0  0  0  0
 18 19  1  0  0  0  0
  1 20  1  0  0  0  0
  1 21  1  0  0  0  0
  1 22  1  0  0  0  0
  2 23  1  0  0  0  0
  2 24  1  0  0  0  0
  7 25  1  0  0  0  0
  7 26  1  0  0  0  0
  8 27  1  0  0  0  0
  8 28  1  0  0  0  0
  8 29  1  0  0  0  0
 10 30  1  0  0  0  0
 10 31  1  0  0  0  0
 15 32  1  0  0  0  0
 15 33  1  0  0  0  0
 16 34  1  0  0  0  0
 16 35  1  0  0  0  0
 16 36  1  0  0  0  0
 18 37  1  0  0  0  0
 18 38  1  0  0  0  0
 19 39  1  0  0  0  0
 19 40  1  0  0  0  0
 19 41  1  0  0  0  0
M  END
