 xtb: 6.7.1 (edcfbbe)
          04092505203D

 41 40  0     0  0            999 V2000
    2.9926    0.7453   -2.3712 C   0  0  0  0  0  0  0  0  0  0  0  0
    2.1540   -0.5145   -2.3392 C   0  0  0  0  0  0  0  0  0  0  0  0
    1.3400   -0.6046   -1.1501 O   0  0  0  0  0  0  0  0  0  0  0  0
    1.8874   -0.5538    0.3308 P   0  0  0  0  0  0  0  0  0  0  0  0
    2.4617    1.1416    1.1434 S   0  0  0  0  0  0  0  0  0  0  0  0
    3.0148   -1.6757    0.2671 O   0  0  0  0  0  0  0  0  0  0  0  0
    3.9421   -1.8947    1.3497 C   0  0  0  0  0  0  0  0  0  0  0  0
    5.2824   -1.2608    1.0326 C   0  0  0  0  0  0  0  0  0  0  0  0
    0.3281   -1.5126    1.3756 S   0  0  0  0  0  0  0  0  0  0  0  0
   -0.4985   -0.0798    2.1442 C   0  0  0  0  0  0  0  0  0  0  0  0
   -2.2159    0.0975    1.6270 S   0  0  0  0  0  0  0  0  0  0  0  0
   -1.8740    0.6332   -0.4075 P   0  0  0  0  0  0  0  0  0  0  0  0
   -0.4949    1.9796   -0.7405 S   0  0  0  0  0  0  0  0  0  0  0  0
   -3.3455    0.9447   -0.9190 O   0  0  0  0  0  0  0  0  0  0  0  0
   -4.2905    1.8088   -0.2594 C   0  0  0  0  0  0  0  0  0  0  0  0
   -3.7382    3.1933    0.0053 C   0  0  0  0  0  0  0  0  0  0  0  0
   -1.5321   -0.6933   -1.1863 O   0  0  0  0  0  0  0  0  0  0  0  0
   -2.3703   -1.8762   -1.1650 C   0  0  0  0  0  0  0  0  0  0  0  0
   -3.2127   -1.9533   -2.4215 C   0  0  0  0  0  0  0  0  0  0  0  0
    3.5062    0.8166   -3.3247 H   0  0  0  0  0  0  0  0  0  0  0  0
    2.3576    1.6197   -2.2362 H   0  0  0  0  0  0  0  0  0  0  0  0
    3.7285    0.7278   -1.5681 H   0  0  0  0  0  0  0  0  0  0  0  0
    2.7802   -1.4083   -2.3888 H   0  0  0  0  0  0  0  0  0  0  0  0
    1.4187   -0.5236   -3.1460 H   0  0  0  0  0  0  0  0  0  0  0  0
    3.5266   -1.4792    2.2716 H   0  0  0  0  0  0  0  0  0  0  0  0
    4.0210   -2.9795    1.4381 H   0  0  0  0  0  0  0  0  0  0  0  0
    5.1761   -0.1797    0.9682 H   0  0  0  0  0  0  0  0  0  0  0  0
    5.9859   -1.4987    1.8237 H   0  0  0  0  0  0  0  0  0  0  0  0
    5.6621   -1.6373    0.0869 H   0  0  0  0  0  0  0  0  0  0  0  0
    0.0670    0.8230    1.8928 H   0  0  0  0  0  0  0  0  0  0  0  0
   -0.5231   -0.2401    3.2190 H   0  0  0  0  0  0  0  0  0  0  0  0
   -5.1331    1.8429   -0.9525 H   0  0  0  0  0  0  0  0  0  0  0  0
   -4.5947    1.3289    0.6747 H   0  0  0  0  0  0  0  0  0  0  0  0
   -4.5186    3.8187    0.4265 H   0  0  0  0  0  0  0  0  0  0  0  0
   -2.9080    3.1398    0.7083 H   0  0  0  0  0  0  0  0  0  0  0  0
   -3.3750    3.6406   -0.9172 H   0  0  0  0  0  0  0  0  0  0  0  0
   -1.6673   -2.7094   -1.0991 H   0  0  0  0  0  0  0  0  0  0  0  0
   -2.9960   -1.8546   -0.2681 H   0  0  0  0  0  0  0  0  0  0  0  0
   -3.7943   -2.8696   -2.4019 H   0  0  0  0  0  0  0  0  0  0  0  0
   -3.8843   -1.1006   -2.4763 H   0  0  0  0  0  0  0  0  0  0  0  0
   -2.5740   -1.9515   -3.3005 H   0  0  0  0  0  0  0  0  0  0  0  0
  1  2  1  0  0  0  0
  2  3  1  0  0  0  0
  3  4  2  0  0  0  0
  4  5  2  0  0  0  0
  4  6  2  0  0  0  0
  6  7  1  0  0  0  0
  7  8  1  0  0  0  0
  4  9  1  0  0  0  0
  9 10  1  0  0  0  0
 10 11  1  0  0  0  0
 11 12  1  0  0  0  0
 12 13  2  0  0  0  0
 12 14  2  0  0  0  0
 14 15  1  0  0  0  0
 15 16  1  0  0  0  0
 12 17  2  0  0  0  0
 17 18  1  0  0  0  0
 18 19  1  0  0  0  0
  1 20  1  0  0  0  0
  1 21  1  0  0  0  0
  1 22  1  0  0  0  0
  2 23  1  0  0  0  0
  2 24  1  0  0  0  0
  7 25  1  0  0  0  0
  7 26  1  0  0  0  0
  8 27  1  0  0  0  0
  8 28  1  0  0  0  0
  8 29  1  0  0  0  0
 10 30  1  0  0  0  0
 10 31  1  0  0  0  0
 15 32  1  0  0  0  0
 15 33  1  0  0  0  0
 16 34  1  0  0  0  0
 16 35  1  0  0  0  0
 16 36  1  0  0  0  0
 18 37  1  0  0  0  0
 18 38  1  0  0  0  0
 19 39  1  0  0  0  0
 19 40  1  0  0  0  0
 19 41  1  0  0  0  0
M  END
