 xtb: 6.7.1 (edcfbbe)
          04092505213D

 41 40  0     0  0            999 V2000
    1.5735   -2.6466   -2.1219 C   0  0  0  0  0  0  0  0  0  0  0  0
    1.9076   -2.5792   -0.6449 C   0  0  0  0  0  0  0  0  0  0  0  0
    2.8569   -1.5253   -0.3826 O   0  0  0  0  0  0  0  0  0  0  0  0
    2.4191   -0.0487    0.0110 P   0  0  0  0  0  0  0  0  0  0  0  0
    1.3173    0.9379   -1.2694 S   0  0  0  0  0  0  0  0  0  0  0  0
    3.8004    0.6687    0.2267 O   0  0  0  0  0  0  0  0  0  0  0  0
    4.8254    0.1769    1.1281 C   0  0  0  0  0  0  0  0  0  0  0  0
    5.8474   -0.6540    0.3802 C   0  0  0  0  0  0  0  0  0  0  0  0
    1.6185   -0.3022    1.9881 S   0  0  0  0  0  0  0  0  0  0  0  0
   -0.0112    0.4244    1.7664 C   0  0  0  0  0  0  0  0  0  0  0  0
   -1.0928   -0.6475    0.7657 S   0  0  0  0  0  0  0  0  0  0  0  0
   -2.4295    0.8610    0.0751 P   0  0  0  0  0  0  0  0  0  0  0  0
   -1.7282    2.6880    0.0427 S   0  0  0  0  0  0  0  0  0  0  0  0
   -3.6799    0.7799    1.0292 O   0  0  0  0  0  0  0  0  0  0  0  0
   -4.4423   -0.4361    1.2427 C   0  0  0  0  0  0  0  0  0  0  0  0
   -5.6648   -0.4686    0.3490 C   0  0  0  0  0  0  0  0  0  0  0  0
   -2.9972    0.2785   -1.2857 O   0  0  0  0  0  0  0  0  0  0  0  0
   -2.1734   -0.0036   -2.4371 C   0  0  0  0  0  0  0  0  0  0  0  0
   -2.0418   -1.5039   -2.6132 C   0  0  0  0  0  0  0  0  0  0  0  0
    1.1184   -1.7129   -2.4440 H   0  0  0  0  0  0  0  0  0  0  0  0
    2.4769   -2.8103   -2.7025 H   0  0  0  0  0  0  0  0  0  0  0  0
    0.8797   -3.4624   -2.2963 H   0  0  0  0  0  0  0  0  0  0  0  0
    2.4085   -3.4883   -0.3069 H   0  0  0  0  0  0  0  0  0  0  0  0
    1.0072   -2.4150   -0.0441 H   0  0  0  0  0  0  0  0  0  0  0  0
    5.2743    1.0805    1.5444 H   0  0  0  0  0  0  0  0  0  0  0  0
    4.3476   -0.3990    1.9256 H   0  0  0  0  0  0  0  0  0  0  0  0
    6.6365   -0.9455    1.0662 H   0  0  0  0  0  0  0  0  0  0  0  0
    5.3817   -1.5442   -0.0329 H   0  0  0  0  0  0  0  0  0  0  0  0
    6.2747   -0.0731   -0.4326 H   0  0  0  0  0  0  0  0  0  0  0  0
    0.0673    1.3905    1.2601 H   0  0  0  0  0  0  0  0  0  0  0  0
   -0.4327    0.5343    2.7628 H   0  0  0  0  0  0  0  0  0  0  0  0
   -3.7925   -1.2971    1.0613 H   0  0  0  0  0  0  0  0  0  0  0  0
   -4.7218   -0.3986    2.2970 H   0  0  0  0  0  0  0  0  0  0  0  0
   -5.3682   -0.4827   -0.6962 H   0  0  0  0  0  0  0  0  0  0  0  0
   -6.2436   -1.3595    0.5718 H   0  0  0  0  0  0  0  0  0  0  0  0
   -6.2772    0.4115    0.5250 H   0  0  0  0  0  0  0  0  0  0  0  0
   -2.6913    0.4547   -3.2817 H   0  0  0  0  0  0  0  0  0  0  0  0
   -1.1970    0.4753   -2.3167 H   0  0  0  0  0  0  0  0  0  0  0  0
   -1.5428   -1.9409   -1.7514 H   0  0  0  0  0  0  0  0  0  0  0  0
   -3.0250   -1.9532   -2.7190 H   0  0  0  0  0  0  0  0  0  0  0  0
   -1.4568   -1.7046   -3.5047 H   0  0  0  0  0  0  0  0  0  0  0  0
  1  2  1  0  0  0  0
  2  3  1  0  0  0  0
  3  4  2  0  0  0  0
  4  5  2  0  0  0  0
  4  6  2  0  0  0  0
  6  7  1  0  0  0  0
  7  8  1  0  0  0  0
  4  9  1  0  0  0  0
  9 10  1  0  0  0  0
 10 11  1  0  0  0  0
 11 12  1  0  0  0  0
 12 13  2  0  0  0  0
 12 14  2  0  0  0  0
 14 15  1  0  0  0  0
 15 16  1  0  0  0  0
 12 17  2  0  0  0  0
 17 18  1  0  0  0  0
 18 19  1  0  0  0  0
  1 20  1  0  0  0  0
  1 21  1  0  0  0  0
  1 22  1  0  0  0  0
  2 23  1  0  0  0  0
  2 24  1  0  0  0  0
  7 25  1  0  0  0  0
  7 26  1  0  0  0  0
  8 27  1  0  0  0  0
  8 28  1  0  0  0  0
  8 29  1  0  0  0  0
 10 30  1  0  0  0  0
 10 31  1  0  0  0  0
 15 32  1  0  0  0  0
 15 33  1  0  0  0  0
 16 34  1  0  0  0  0
 16 35  1  0  0  0  0
 16 36  1  0  0  0  0
 18 37  1  0  0  0  0
 18 38  1  0  0  0  0
 19 39  1  0  0  0  0
 19 40  1  0  0  0  0
 19 41  1  0  0  0  0
M  END
