 xtb: 6.7.1 (edcfbbe)
          04092505213D

 41 40  0     0  0            999 V2000
    4.4902    0.4060   -2.4533 C   0  0  0  0  0  0  0  0  0  0  0  0
    4.8535   -0.4728   -1.2739 C   0  0  0  0  0  0  0  0  0  0  0  0
    3.7001   -1.1153   -0.7027 O   0  0  0  0  0  0  0  0  0  0  0  0
    2.5578   -0.3030    0.0502 P   0  0  0  0  0  0  0  0  0  0  0  0
    3.2179    1.1671    1.1747 S   0  0  0  0  0  0  0  0  0  0  0  0
    1.7915   -1.4602    0.8084 O   0  0  0  0  0  0  0  0  0  0  0  0
    2.2236   -1.9515    2.1005 C   0  0  0  0  0  0  0  0  0  0  0  0
    0.9993   -2.2079    2.9546 C   0  0  0  0  0  0  0  0  0  0  0  0
    1.1392    0.1726   -1.4294 S   0  0  0  0  0  0  0  0  0  0  0  0
    0.2331    1.3898   -0.4292 C   0  0  0  0  0  0  0  0  0  0  0  0
   -0.8054    0.6377    0.8475 S   0  0  0  0  0  0  0  0  0  0  0  0
   -2.5002    0.3162   -0.4185 P   0  0  0  0  0  0  0  0  0  0  0  0
   -2.2132   -0.5925   -2.1245 S   0  0  0  0  0  0  0  0  0  0  0  0
   -3.0633    1.7746   -0.6410 O   0  0  0  0  0  0  0  0  0  0  0  0
   -3.5047    2.6460    0.4308 C   0  0  0  0  0  0  0  0  0  0  0  0
   -4.9986    2.5201    0.6484 C   0  0  0  0  0  0  0  0  0  0  0  0
   -3.5639   -0.3524    0.5535 O   0  0  0  0  0  0  0  0  0  0  0  0
   -3.6706   -1.7803    0.6995 C   0  0  0  0  0  0  0  0  0  0  0  0
   -2.4407   -2.3766    1.3515 C   0  0  0  0  0  0  0  0  0  0  0  0
    3.9082   -0.1568   -3.1792 H   0  0  0  0  0  0  0  0  0  0  0  0
    3.8988    1.2562   -2.1152 H   0  0  0  0  0  0  0  0  0  0  0  0
    5.3975    0.7723   -2.9229 H   0  0  0  0  0  0  0  0  0  0  0  0
    5.3418    0.1168   -0.4912 H   0  0  0  0  0  0  0  0  0  0  0  0
    5.4956   -1.3030   -1.5708 H   0  0  0  0  0  0  0  0  0  0  0  0
    2.7921   -2.8666    1.9227 H   0  0  0  0  0  0  0  0  0  0  0  0
    2.8762   -1.2016    2.5609 H   0  0  0  0  0  0  0  0  0  0  0  0
    0.3593   -2.9439    2.4773 H   0  0  0  0  0  0  0  0  0  0  0  0
    1.3153   -2.5783    3.9244 H   0  0  0  0  0  0  0  0  0  0  0  0
    0.4404   -1.2846    3.0854 H   0  0  0  0  0  0  0  0  0  0  0  0
   -0.3880    1.9584   -1.1188 H   0  0  0  0  0  0  0  0  0  0  0  0
    0.9515    2.0317    0.0822 H   0  0  0  0  0  0  0  0  0  0  0  0
   -2.9486    2.4003    1.3396 H   0  0  0  0  0  0  0  0  0  0  0  0
   -3.2376    3.6485    0.0914 H   0  0  0  0  0  0  0  0  0  0  0  0
   -5.2471    1.5223    0.9989 H   0  0  0  0  0  0  0  0  0  0  0  0
   -5.3109    3.2490    1.3897 H   0  0  0  0  0  0  0  0  0  0  0  0
   -5.5265    2.7066   -0.2829 H   0  0  0  0  0  0  0  0  0  0  0  0
   -4.5599   -1.9153    1.3165 H   0  0  0  0  0  0  0  0  0  0  0  0
   -3.8320   -2.2166   -0.2910 H   0  0  0  0  0  0  0  0  0  0  0  0
   -2.2298   -1.8726    2.2915 H   0  0  0  0  0  0  0  0  0  0  0  0
   -2.6080   -3.4330    1.5362 H   0  0  0  0  0  0  0  0  0  0  0  0
   -1.5813   -2.2653    0.6904 H   0  0  0  0  0  0  0  0  0  0  0  0
  1  2  1  0  0  0  0
  2  3  1  0  0  0  0
  3  4  2  0  0  0  0
  4  5  2  0  0  0  0
  4  6  2  0  0  0  0
  6  7  1  0  0  0  0
  7  8  1  0  0  0  0
  4  9  1  0  0  0  0
  9 10  1  0  0  0  0
 10 11  1  0  0  0  0
 11 12  1  0  0  0  0
 12 13  2  0  0  0  0
 12 14  2  0  0  0  0
 14 15  1  0  0  0  0
 15 16  1  0  0  0  0
 12 17  2  0  0  0  0
 17 18  1  0  0  0  0
 18 19  1  0  0  0  0
  1 20  1  0  0  0  0
  1 21  1  0  0  0  0
  1 22  1  0  0  0  0
  2 23  1  0  0  0  0
  2 24  1  0  0  0  0
  7 25  1  0  0  0  0
  7 26  1  0  0  0  0
  8 27  1  0  0  0  0
  8 28  1  0  0  0  0
  8 29  1  0  0  0  0
 10 30  1  0  0  0  0
 10 31  1  0  0  0  0
 15 32  1  0  0  0  0
 15 33  1  0  0  0  0
 16 34  1  0  0  0  0
 16 35  1  0  0  0  0
 16 36  1  0  0  0  0
 18 37  1  0  0  0  0
 18 38  1  0  0  0  0
 19 39  1  0  0  0  0
 19 40  1  0  0  0  0
 19 41  1  0  0  0  0
M  END
