 xtb: 6.7.1 (edcfbbe)
          04092505213D

 41 40  0     0  0            999 V2000
    3.7988   -0.3655   -2.3287 C   0  0  0  0  0  0  0  0  0  0  0  0
    2.5114    0.4133   -2.1694 C   0  0  0  0  0  0  0  0  0  0  0  0
    1.7761   -0.0267   -1.0123 O   0  0  0  0  0  0  0  0  0  0  0  0
    2.2600    0.2786    0.4608 P   0  0  0  0  0  0  0  0  0  0  0  0
    3.2897    1.9223    0.7258 S   0  0  0  0  0  0  0  0  0  0  0  0
    2.9769   -1.1028    0.8241 O   0  0  0  0  0  0  0  0  0  0  0  0
    3.5971   -1.3112    2.1080 C   0  0  0  0  0  0  0  0  0  0  0  0
    5.0754   -0.9782    2.0572 C   0  0  0  0  0  0  0  0  0  0  0  0
    0.4492    0.2036    1.5244 S   0  0  0  0  0  0  0  0  0  0  0  0
   -0.2377   -1.3625    0.8454 C   0  0  0  0  0  0  0  0  0  0  0  0
   -2.0318   -1.3224    0.8728 S   0  0  0  0  0  0  0  0  0  0  0  0
   -2.2873    0.0877   -0.7120 P   0  0  0  0  0  0  0  0  0  0  0  0
   -1.1604   -0.2570   -2.2766 S   0  0  0  0  0  0  0  0  0  0  0  0
   -1.9878    1.5459   -0.1904 O   0  0  0  0  0  0  0  0  0  0  0  0
   -2.8222    2.3471    0.6816 C   0  0  0  0  0  0  0  0  0  0  0  0
   -2.9908    1.7412    2.0595 C   0  0  0  0  0  0  0  0  0  0  0  0
   -3.8611    0.1292   -0.9093 O   0  0  0  0  0  0  0  0  0  0  0  0
   -4.7118   -1.0284   -1.0184 C   0  0  0  0  0  0  0  0  0  0  0  0
   -4.2941   -1.9579   -2.1380 C   0  0  0  0  0  0  0  0  0  0  0  0
    4.4578   -0.1558   -1.4867 H   0  0  0  0  0  0  0  0  0  0  0  0
    3.5907   -1.4317   -2.3593 H   0  0  0  0  0  0  0  0  0  0  0  0
    4.2898   -0.0644   -3.2486 H   0  0  0  0  0  0  0  0  0  0  0  0
    1.8165    0.2441   -2.9943 H   0  0  0  0  0  0  0  0  0  0  0  0
    2.7129    1.4845   -2.0670 H   0  0  0  0  0  0  0  0  0  0  0  0
    3.0847   -0.7004    2.8588 H   0  0  0  0  0  0  0  0  0  0  0  0
    3.4373   -2.3693    2.3244 H   0  0  0  0  0  0  0  0  0  0  0  0
    5.5646   -1.5685    1.2875 H   0  0  0  0  0  0  0  0  0  0  0  0
    5.2158    0.0773    1.8345 H   0  0  0  0  0  0  0  0  0  0  0  0
    5.5249   -1.1988    3.0199 H   0  0  0  0  0  0  0  0  0  0  0  0
    0.0701   -2.1914    1.4767 H   0  0  0  0  0  0  0  0  0  0  0  0
    0.1068   -1.4754   -0.1828 H   0  0  0  0  0  0  0  0  0  0  0  0
   -2.2859    3.2964    0.7274 H   0  0  0  0  0  0  0  0  0  0  0  0
   -3.7873    2.4872    0.1912 H   0  0  0  0  0  0  0  0  0  0  0  0
   -3.5010    2.4577    2.6957 H   0  0  0  0  0  0  0  0  0  0  0  0
   -3.5820    0.8295    2.0100 H   0  0  0  0  0  0  0  0  0  0  0  0
   -2.0191    1.5100    2.4919 H   0  0  0  0  0  0  0  0  0  0  0  0
   -4.7010   -1.5511   -0.0582 H   0  0  0  0  0  0  0  0  0  0  0  0
   -5.7000   -0.6022   -1.2004 H   0  0  0  0  0  0  0  0  0  0  0  0
   -3.3123   -2.3800   -1.9292 H   0  0  0  0  0  0  0  0  0  0  0  0
   -5.0153   -2.7641   -2.2251 H   0  0  0  0  0  0  0  0  0  0  0  0
   -4.2411   -1.4180   -3.0805 H   0  0  0  0  0  0  0  0  0  0  0  0
  1  2  1  0  0  0  0
  2  3  1  0  0  0  0
  3  4  2  0  0  0  0
  4  5  2  0  0  0  0
  4  6  1  0  0  0  0
  6  7  1  0  0  0  0
  7  8  1  0  0  0  0
  4  9  1  0  0  0  0
  9 10  1  0  0  0  0
 10 11  1  0  0  0  0
 11 12  1  0  0  0  0
 12 13  2  0  0  0  0
 12 14  2  0  0  0  0
 14 15  1  0  0  0  0
 15 16  1  0  0  0  0
 12 17  2  0  0  0  0
 17 18  1  0  0  0  0
 18 19  1  0  0  0  0
  1 20  1  0  0  0  0
  1 21  1  0  0  0  0
  1 22  1  0  0  0  0
  2 23  1  0  0  0  0
  2 24  1  0  0  0  0
  7 25  1  0  0  0  0
  7 26  1  0  0  0  0
  8 27  1  0  0  0  0
  8 28  1  0  0  0  0
  8 29  1  0  0  0  0
 10 30  1  0  0  0  0
 10 31  1  0  0  0  0
 15 32  1  0  0  0  0
 15 33  1  0  0  0  0
 16 34  1  0  0  0  0
 16 35  1  0  0  0  0
 16 36  1  0  0  0  0
 18 37  1  0  0  0  0
 18 38  1  0  0  0  0
 19 39  1  0  0  0  0
 19 40  1  0  0  0  0
 19 41  1  0  0  0  0
M  END
