 xtb: 6.7.1 (edcfbbe)
          04092505213D

 41 40  0     0  0            999 V2000
    4.6774   -2.0066   -0.3675 C   0  0  0  0  0  0  0  0  0  0  0  0
    4.0297   -1.6752    0.9608 C   0  0  0  0  0  0  0  0  0  0  0  0
    3.3396   -0.4107    0.9494 O   0  0  0  0  0  0  0  0  0  0  0  0
    2.2547    0.0407   -0.1166 P   0  0  0  0  0  0  0  0  0  0  0  0
    2.8956    0.6732   -1.8636 S   0  0  0  0  0  0  0  0  0  0  0  0
    1.4760    1.1357    0.7370 O   0  0  0  0  0  0  0  0  0  0  0  0
    1.6641    2.5464    0.5341 C   0  0  0  0  0  0  0  0  0  0  0  0
    2.9796    3.0057    1.1260 C   0  0  0  0  0  0  0  0  0  0  0  0
    0.8772   -1.5593   -0.1236 S   0  0  0  0  0  0  0  0  0  0  0  0
   -0.0513   -1.0410   -1.5900 C   0  0  0  0  0  0  0  0  0  0  0  0
   -0.7366    0.6436   -1.4796 S   0  0  0  0  0  0  0  0  0  0  0  0
   -2.3783    0.2693   -0.2027 P   0  0  0  0  0  0  0  0  0  0  0  0
   -3.3630    1.8540    0.3888 S   0  0  0  0  0  0  0  0  0  0  0  0
   -1.8300   -0.6564    0.9693 O   0  0  0  0  0  0  0  0  0  0  0  0
   -1.3564   -0.1516    2.2300 C   0  0  0  0  0  0  0  0  0  0  0  0
   -1.4425   -1.2810    3.2365 C   0  0  0  0  0  0  0  0  0  0  0  0
   -3.1533   -0.7796   -1.1020 O   0  0  0  0  0  0  0  0  0  0  0  0
   -4.5561   -1.0594   -0.9037 C   0  0  0  0  0  0  0  0  0  0  0  0
   -4.8185   -1.7217    0.4320 C   0  0  0  0  0  0  0  0  0  0  0  0
    3.9157   -2.1445   -1.1336 H   0  0  0  0  0  0  0  0  0  0  0  0
    5.3370   -1.2008   -0.6808 H   0  0  0  0  0  0  0  0  0  0  0  0
    5.2510   -2.9228   -0.2699 H   0  0  0  0  0  0  0  0  0  0  0  0
    4.7748   -1.5522    1.7488 H   0  0  0  0  0  0  0  0  0  0  0  0
    3.3120   -2.4496    1.2453 H   0  0  0  0  0  0  0  0  0  0  0  0
    1.6225    2.7554   -0.5406 H   0  0  0  0  0  0  0  0  0  0  0  0
    0.8066    3.0091    1.0262 H   0  0  0  0  0  0  0  0  0  0  0  0
    3.8016    2.5113    0.6090 H   0  0  0  0  0  0  0  0  0  0  0  0
    3.0766    4.0798    1.0045 H   0  0  0  0  0  0  0  0  0  0  0  0
    3.0254    2.7517    2.1815 H   0  0  0  0  0  0  0  0  0  0  0  0
   -0.8565   -1.7567   -1.7301 H   0  0  0  0  0  0  0  0  0  0  0  0
    0.6195   -1.0179   -2.4482 H   0  0  0  0  0  0  0  0  0  0  0  0
   -0.3233    0.1855    2.1044 H   0  0  0  0  0  0  0  0  0  0  0  0
   -1.9771    0.7035    2.5189 H   0  0  0  0  0  0  0  0  0  0  0  0
   -0.8528   -2.1249    2.8892 H   0  0  0  0  0  0  0  0  0  0  0  0
   -1.0547   -0.9373    4.1897 H   0  0  0  0  0  0  0  0  0  0  0  0
   -2.4743   -1.5967    3.3614 H   0  0  0  0  0  0  0  0  0  0  0  0
   -5.1088   -0.1184   -0.9841 H   0  0  0  0  0  0  0  0  0  0  0  0
   -4.8095   -1.7123   -1.7399 H   0  0  0  0  0  0  0  0  0  0  0  0
   -5.8626   -2.0129    0.4894 H   0  0  0  0  0  0  0  0  0  0  0  0
   -4.1893   -2.6003    0.5475 H   0  0  0  0  0  0  0  0  0  0  0  0
   -4.6026   -1.0216    1.2381 H   0  0  0  0  0  0  0  0  0  0  0  0
  1  2  1  0  0  0  0
  2  3  1  0  0  0  0
  3  4  2  0  0  0  0
  4  5  2  0  0  0  0
  4  6  1  0  0  0  0
  6  7  1  0  0  0  0
  7  8  1  0  0  0  0
  4  9  1  0  0  0  0
  9 10  1  0  0  0  0
 10 11  1  0  0  0  0
 11 12  1  0  0  0  0
 12 13  2  0  0  0  0
 12 14  2  0  0  0  0
 14 15  1  0  0  0  0
 15 16  1  0  0  0  0
 12 17  2  0  0  0  0
 17 18  1  0  0  0  0
 18 19  1  0  0  0  0
  1 20  1  0  0  0  0
  1 21  1  0  0  0  0
  1 22  1  0  0  0  0
  2 23  1  0  0  0  0
  2 24  1  0  0  0  0
  7 25  1  0  0  0  0
  7 26  1  0  0  0  0
  8 27  1  0  0  0  0
  8 28  1  0  0  0  0
  8 29  1  0  0  0  0
 10 30  1  0  0  0  0
 10 31  1  0  0  0  0
 15 32  1  0  0  0  0
 15 33  1  0  0  0  0
 16 34  1  0  0  0  0
 16 35  1  0  0  0  0
 16 36  1  0  0  0  0
 18 37  1  0  0  0  0
 18 38  1  0  0  0  0
 19 39  1  0  0  0  0
 19 40  1  0  0  0  0
 19 41  1  0  0  0  0
M  END
