 xtb: 6.7.1 (edcfbbe)
          04092505213D

 41 40  0     0  0            999 V2000
    3.0299   -2.9557   -1.3893 C   0  0  0  0  0  0  0  0  0  0  0  0
    4.0713   -2.1309   -0.6635 C   0  0  0  0  0  0  0  0  0  0  0  0
    3.8051   -0.7091   -0.7415 O   0  0  0  0  0  0  0  0  0  0  0  0
    2.5725    0.0417   -0.1146 P   0  0  0  0  0  0  0  0  0  0  0  0
    2.9573    1.9603   -0.0186 S   0  0  0  0  0  0  0  0  0  0  0  0
    2.3846   -0.7669    1.2456 O   0  0  0  0  0  0  0  0  0  0  0  0
    1.2723   -0.6442    2.1474 C   0  0  0  0  0  0  0  0  0  0  0  0
    1.3115    0.6480    2.9383 C   0  0  0  0  0  0  0  0  0  0  0  0
    0.8603   -0.4641   -1.3000 S   0  0  0  0  0  0  0  0  0  0  0  0
    0.0953    1.1650   -1.3996 C   0  0  0  0  0  0  0  0  0  0  0  0
   -0.8276    1.6225    0.0915 S   0  0  0  0  0  0  0  0  0  0  0  0
   -2.4427    0.3002   -0.2104 P   0  0  0  0  0  0  0  0  0  0  0  0
   -3.0707    0.0359   -2.0409 S   0  0  0  0  0  0  0  0  0  0  0  0
   -3.6223    0.8391    0.7027 O   0  0  0  0  0  0  0  0  0  0  0  0
   -3.5001    1.0410    2.1329 C   0  0  0  0  0  0  0  0  0  0  0  0
   -3.2131    2.4941    2.4535 C   0  0  0  0  0  0  0  0  0  0  0  0
   -1.8702   -0.9988    0.5366 O   0  0  0  0  0  0  0  0  0  0  0  0
   -2.4100   -2.3160    0.2852 C   0  0  0  0  0  0  0  0  0  0  0  0
   -1.4708   -3.1124   -0.5975 C   0  0  0  0  0  0  0  0  0  0  0  0
    2.9363   -2.6277   -2.4213 H   0  0  0  0  0  0  0  0  0  0  0  0
    3.3265   -3.9997   -1.3710 H   0  0  0  0  0  0  0  0  0  0  0  0
    2.0602   -2.8544   -0.9052 H   0  0  0  0  0  0  0  0  0  0  0  0
    5.0533   -2.2243   -1.1299 H   0  0  0  0  0  0  0  0  0  0  0  0
    4.1318   -2.4101    0.3898 H   0  0  0  0  0  0  0  0  0  0  0  0
    0.3416   -0.7264    1.5777 H   0  0  0  0  0  0  0  0  0  0  0  0
    1.3767   -1.5112    2.8032 H   0  0  0  0  0  0  0  0  0  0  0  0
    0.5156    0.6415    3.6761 H   0  0  0  0  0  0  0  0  0  0  0  0
    2.2689    0.7492    3.4429 H   0  0  0  0  0  0  0  0  0  0  0  0
    1.1753    1.5037    2.2799 H   0  0  0  0  0  0  0  0  0  0  0  0
   -0.5886    1.1421   -2.2481 H   0  0  0  0  0  0  0  0  0  0  0  0
    0.8699    1.9227   -1.5234 H   0  0  0  0  0  0  0  0  0  0  0  0
   -4.4691    0.7340    2.5304 H   0  0  0  0  0  0  0  0  0  0  0  0
   -2.7146    0.3871    2.5192 H   0  0  0  0  0  0  0  0  0  0  0  0
   -3.9701    3.1304    2.0037 H   0  0  0  0  0  0  0  0  0  0  0  0
   -3.2264    2.6284    3.5305 H   0  0  0  0  0  0  0  0  0  0  0  0
   -2.2377    2.7868    2.0705 H   0  0  0  0  0  0  0  0  0  0  0  0
   -2.5164   -2.7729    1.2707 H   0  0  0  0  0  0  0  0  0  0  0  0
   -3.3936   -2.2175   -0.1837 H   0  0  0  0  0  0  0  0  0  0  0  0
   -1.8720   -4.1109   -0.7368 H   0  0  0  0  0  0  0  0  0  0  0  0
   -1.3692   -2.6294   -1.5670 H   0  0  0  0  0  0  0  0  0  0  0  0
   -0.4891   -3.1782   -0.1376 H   0  0  0  0  0  0  0  0  0  0  0  0
  1  2  1  0  0  0  0
  2  3  1  0  0  0  0
  3  4  2  0  0  0  0
  4  5  2  0  0  0  0
  4  6  2  0  0  0  0
  6  7  1  0  0  0  0
  7  8  1  0  0  0  0
  4  9  1  0  0  0  0
  9 10  1  0  0  0  0
 10 11  1  0  0  0  0
 11 12  1  0  0  0  0
 12 13  2  0  0  0  0
 12 14  2  0  0  0  0
 14 15  1  0  0  0  0
 15 16  1  0  0  0  0
 12 17  1  0  0  0  0
 17 18  1  0  0  0  0
 18 19  1  0  0  0  0
  1 20  1  0  0  0  0
  1 21  1  0  0  0  0
  1 22  1  0  0  0  0
  2 23  1  0  0  0  0
  2 24  1  0  0  0  0
  7 25  1  0  0  0  0
  7 26  1  0  0  0  0
  8 27  1  0  0  0  0
  8 28  1  0  0  0  0
  8 29  1  0  0  0  0
 10 30  1  0  0  0  0
 10 31  1  0  0  0  0
 15 32  1  0  0  0  0
 15 33  1  0  0  0  0
 16 34  1  0  0  0  0
 16 35  1  0  0  0  0
 16 36  1  0  0  0  0
 18 37  1  0  0  0  0
 18 38  1  0  0  0  0
 19 39  1  0  0  0  0
 19 40  1  0  0  0  0
 19 41  1  0  0  0  0
M  END
