 xtb: 6.7.1 (edcfbbe)
          04092505213D

 41 40  0     0  0            999 V2000
    4.5220   -1.5531    1.1491 C   0  0  0  0  0  0  0  0  0  0  0  0
    4.5065   -0.0935    0.7427 C   0  0  0  0  0  0  0  0  0  0  0  0
    3.1839    0.4707    0.7991 O   0  0  0  0  0  0  0  0  0  0  0  0
    2.0321    0.0511   -0.2123 P   0  0  0  0  0  0  0  0  0  0  0  0
    2.6318   -0.2652   -2.0564 S   0  0  0  0  0  0  0  0  0  0  0  0
    0.9816    1.2252    0.0064 O   0  0  0  0  0  0  0  0  0  0  0  0
    0.9853    2.4089   -0.8122 C   0  0  0  0  0  0  0  0  0  0  0  0
    2.2147    3.2580   -0.5728 C   0  0  0  0  0  0  0  0  0  0  0  0
    1.0687   -1.5023    0.8186 S   0  0  0  0  0  0  0  0  0  0  0  0
   -0.0514   -2.0950   -0.4911 C   0  0  0  0  0  0  0  0  0  0  0  0
   -0.8482   -0.7708   -1.4461 S   0  0  0  0  0  0  0  0  0  0  0  0
   -2.0981    0.1839   -0.0023 P   0  0  0  0  0  0  0  0  0  0  0  0
   -2.7161    1.8953   -0.7179 S   0  0  0  0  0  0  0  0  0  0  0  0
   -1.3488    0.3082    1.3729 O   0  0  0  0  0  0  0  0  0  0  0  0
   -1.5742   -0.4786    2.5760 C   0  0  0  0  0  0  0  0  0  0  0  0
   -0.7254    0.1419    3.6647 C   0  0  0  0  0  0  0  0  0  0  0  0
   -3.1963   -0.9226    0.3417 O   0  0  0  0  0  0  0  0  0  0  0  0
   -4.1829   -1.3285   -0.6262 C   0  0  0  0  0  0  0  0  0  0  0  0
   -5.4579   -0.5231   -0.4722 C   0  0  0  0  0  0  0  0  0  0  0  0
    5.5497   -1.8968    1.2086 H   0  0  0  0  0  0  0  0  0  0  0  0
    4.0402   -1.6826    2.1149 H   0  0  0  0  0  0  0  0  0  0  0  0
    3.9927   -2.1511    0.4085 H   0  0  0  0  0  0  0  0  0  0  0  0
    4.8891    0.0253   -0.2762 H   0  0  0  0  0  0  0  0  0  0  0  0
    5.0835    0.5246    1.4316 H   0  0  0  0  0  0  0  0  0  0  0  0
    0.9181    2.1034   -1.8626 H   0  0  0  0  0  0  0  0  0  0  0  0
    0.0665    2.9284   -0.5313 H   0  0  0  0  0  0  0  0  0  0  0  0
    2.3178    3.4757    0.4870 H   0  0  0  0  0  0  0  0  0  0  0  0
    3.1030    2.7281   -0.9154 H   0  0  0  0  0  0  0  0  0  0  0  0
    2.1203    4.1863   -1.1275 H   0  0  0  0  0  0  0  0  0  0  0  0
   -0.7976   -2.7223   -0.0094 H   0  0  0  0  0  0  0  0  0  0  0  0
    0.5203   -2.6616   -1.2244 H   0  0  0  0  0  0  0  0  0  0  0  0
   -2.6373   -0.4399    2.8168 H   0  0  0  0  0  0  0  0  0  0  0  0
   -1.2744   -1.5104    2.3855 H   0  0  0  0  0  0  0  0  0  0  0  0
   -0.8652   -0.4157    4.5850 H   0  0  0  0  0  0  0  0  0  0  0  0
    0.3228    0.1087    3.3791 H   0  0  0  0  0  0  0  0  0  0  0  0
   -1.0128    1.1778    3.8206 H   0  0  0  0  0  0  0  0  0  0  0  0
   -3.7676   -1.2150   -1.6325 H   0  0  0  0  0  0  0  0  0  0  0  0
   -4.3556   -2.3862   -0.4177 H   0  0  0  0  0  0  0  0  0  0  0  0
   -5.2639    0.5290   -0.6694 H   0  0  0  0  0  0  0  0  0  0  0  0
   -6.1967   -0.8851   -1.1799 H   0  0  0  0  0  0  0  0  0  0  0  0
   -5.8465   -0.6248    0.5371 H   0  0  0  0  0  0  0  0  0  0  0  0
  1  2  1  0  0  0  0
  2  3  1  0  0  0  0
  3  4  2  0  0  0  0
  4  5  2  0  0  0  0
  4  6  1  0  0  0  0
  6  7  1  0  0  0  0
  7  8  1  0  0  0  0
  4  9  1  0  0  0  0
  9 10  1  0  0  0  0
 10 11  1  0  0  0  0
 11 12  1  0  0  0  0
 12 13  2  0  0  0  0
 12 14  2  0  0  0  0
 14 15  1  0  0  0  0
 15 16  1  0  0  0  0
 12 17  2  0  0  0  0
 17 18  1  0  0  0  0
 18 19  1  0  0  0  0
  1 20  1  0  0  0  0
  1 21  1  0  0  0  0
  1 22  1  0  0  0  0
  2 23  1  0  0  0  0
  2 24  1  0  0  0  0
  7 25  1  0  0  0  0
  7 26  1  0  0  0  0
  8 27  1  0  0  0  0
  8 28  1  0  0  0  0
  8 29  1  0  0  0  0
 10 30  1  0  0  0  0
 10 31  1  0  0  0  0
 15 32  1  0  0  0  0
 15 33  1  0  0  0  0
 16 34  1  0  0  0  0
 16 35  1  0  0  0  0
 16 36  1  0  0  0  0
 18 37  1  0  0  0  0
 18 38  1  0  0  0  0
 19 39  1  0  0  0  0
 19 40  1  0  0  0  0
 19 41  1  0  0  0  0
M  END
