 xtb: 6.7.1 (edcfbbe)
          04092505213D

 41 40  0     0  0            999 V2000
    4.5980   -1.4310   -1.2618 C   0  0  0  0  0  0  0  0  0  0  0  0
    4.7183    0.0054   -0.7954 C   0  0  0  0  0  0  0  0  0  0  0  0
    3.6782    0.3625    0.1306 O   0  0  0  0  0  0  0  0  0  0  0  0
    2.1460    0.4581   -0.2977 P   0  0  0  0  0  0  0  0  0  0  0  0
    1.8857    1.2273   -2.0871 S   0  0  0  0  0  0  0  0  0  0  0  0
    1.5648    1.2554    0.9442 O   0  0  0  0  0  0  0  0  0  0  0  0
    1.7622    2.6807    1.0681 C   0  0  0  0  0  0  0  0  0  0  0  0
    0.8779    3.1759    2.1929 C   0  0  0  0  0  0  0  0  0  0  0  0
    1.3626   -1.4484    0.0997 S   0  0  0  0  0  0  0  0  0  0  0  0
    0.0958   -1.5724   -1.2181 C   0  0  0  0  0  0  0  0  0  0  0  0
   -1.5192   -2.0857   -0.5926 S   0  0  0  0  0  0  0  0  0  0  0  0
   -2.2100   -0.2643    0.2681 P   0  0  0  0  0  0  0  0  0  0  0  0
   -1.3378    1.3565   -0.4288 S   0  0  0  0  0  0  0  0  0  0  0  0
   -2.2533   -0.4237    1.8380 O   0  0  0  0  0  0  0  0  0  0  0  0
   -1.0918   -0.3810    2.6896 C   0  0  0  0  0  0  0  0  0  0  0  0
   -0.6751   -1.7826    3.0924 C   0  0  0  0  0  0  0  0  0  0  0  0
   -3.7727   -0.3367    0.0695 O   0  0  0  0  0  0  0  0  0  0  0  0
   -4.3558   -0.1668   -1.2394 C   0  0  0  0  0  0  0  0  0  0  0  0
   -5.8274    0.1423   -1.0532 C   0  0  0  0  0  0  0  0  0  0  0  0
    4.5278   -2.1014   -0.4090 H   0  0  0  0  0  0  0  0  0  0  0  0
    3.7061   -1.5456   -1.8766 H   0  0  0  0  0  0  0  0  0  0  0  0
    5.4690   -1.6895   -1.8553 H   0  0  0  0  0  0  0  0  0  0  0  0
    4.6703    0.6910   -1.6475 H   0  0  0  0  0  0  0  0  0  0  0  0
    5.6377    0.1729   -0.2328 H   0  0  0  0  0  0  0  0  0  0  0  0
    2.8202    2.8620    1.2745 H   0  0  0  0  0  0  0  0  0  0  0  0
    1.4939    3.1488    0.1145 H   0  0  0  0  0  0  0  0  0  0  0  0
   -0.1653    2.9878    1.9504 H   0  0  0  0  0  0  0  0  0  0  0  0
    1.1277    2.6622    3.1167 H   0  0  0  0  0  0  0  0  0  0  0  0
    1.0266    4.2433    2.3183 H   0  0  0  0  0  0  0  0  0  0  0  0
    0.4017   -2.3490   -1.9138 H   0  0  0  0  0  0  0  0  0  0  0  0
    0.0179   -0.6015   -1.7143 H   0  0  0  0  0  0  0  0  0  0  0  0
   -0.2796    0.1491    2.1813 H   0  0  0  0  0  0  0  0  0  0  0  0
   -1.4075    0.2004    3.5585 H   0  0  0  0  0  0  0  0  0  0  0  0
   -1.5153   -2.2992    3.5473 H   0  0  0  0  0  0  0  0  0  0  0  0
   -0.3379   -2.3499    2.2277 H   0  0  0  0  0  0  0  0  0  0  0  0
    0.1396   -1.7180    3.8064 H   0  0  0  0  0  0  0  0  0  0  0  0
   -3.8373    0.6501   -1.7541 H   0  0  0  0  0  0  0  0  0  0  0  0
   -4.2114   -1.0937   -1.8014 H   0  0  0  0  0  0  0  0  0  0  0  0
   -5.9468    1.0640   -0.4909 H   0  0  0  0  0  0  0  0  0  0  0  0
   -6.2952    0.2513   -2.0261 H   0  0  0  0  0  0  0  0  0  0  0  0
   -6.3069   -0.6658   -0.5090 H   0  0  0  0  0  0  0  0  0  0  0  0
  1  2  1  0  0  0  0
  2  3  1  0  0  0  0
  3  4  2  0  0  0  0
  4  5  2  0  0  0  0
  4  6  2  0  0  0  0
  6  7  1  0  0  0  0
  7  8  1  0  0  0  0
  4  9  1  0  0  0  0
  9 10  1  0  0  0  0
 10 11  1  0  0  0  0
 11 12  1  0  0  0  0
 12 13  2  0  0  0  0
 12 14  2  0  0  0  0
 14 15  1  0  0  0  0
 15 16  1  0  0  0  0
 12 17  2  0  0  0  0
 17 18  1  0  0  0  0
 18 19  1  0  0  0  0
  1 20  1  0  0  0  0
  1 21  1  0  0  0  0
  1 22  1  0  0  0  0
  2 23  1  0  0  0  0
  2 24  1  0  0  0  0
  7 25  1  0  0  0  0
  7 26  1  0  0  0  0
  8 27  1  0  0  0  0
  8 28  1  0  0  0  0
  8 29  1  0  0  0  0
 10 30  1  0  0  0  0
 10 31  1  0  0  0  0
 15 32  1  0  0  0  0
 15 33  1  0  0  0  0
 16 34  1  0  0  0  0
 16 35  1  0  0  0  0
 16 36  1  0  0  0  0
 18 37  1  0  0  0  0
 18 38  1  0  0  0  0
 19 39  1  0  0  0  0
 19 40  1  0  0  0  0
 19 41  1  0  0  0  0
M  END
