 xtb: 6.7.1 (edcfbbe)
          04092505213D

 41 40  0     0  0            999 V2000
    4.6259   -1.2859   -1.0572 C   0  0  0  0  0  0  0  0  0  0  0  0
    4.6473    0.1458   -0.5626 C   0  0  0  0  0  0  0  0  0  0  0  0
    3.5329    0.4400    0.2964 O   0  0  0  0  0  0  0  0  0  0  0  0
    2.0277    0.4653   -0.2294 P   0  0  0  0  0  0  0  0  0  0  0  0
    1.8517    1.2369   -2.0284 S   0  0  0  0  0  0  0  0  0  0  0  0
    1.3333    1.2319    0.9713 O   0  0  0  0  0  0  0  0  0  0  0  0
    1.5801    2.6476    1.1484 C   0  0  0  0  0  0  0  0  0  0  0  0
    0.4919    3.2184    2.0324 C   0  0  0  0  0  0  0  0  0  0  0  0
    1.3152   -1.4905    0.0848 S   0  0  0  0  0  0  0  0  0  0  0  0
    0.2860   -1.6953   -1.4082 C   0  0  0  0  0  0  0  0  0  0  0  0
   -1.4006   -2.2381   -1.0319 S   0  0  0  0  0  0  0  0  0  0  0  0
   -2.0487   -0.5750    0.0739 P   0  0  0  0  0  0  0  0  0  0  0  0
   -1.5185    1.2047   -0.5742 S   0  0  0  0  0  0  0  0  0  0  0  0
   -1.5691   -0.9729    1.5234 O   0  0  0  0  0  0  0  0  0  0  0  0
   -1.6164   -0.0659    2.6489 C   0  0  0  0  0  0  0  0  0  0  0  0
   -0.4374   -0.3695    3.5502 C   0  0  0  0  0  0  0  0  0  0  0  0
   -3.6187   -0.8036    0.1882 O   0  0  0  0  0  0  0  0  0  0  0  0
   -4.5299   -0.4604   -0.8771 C   0  0  0  0  0  0  0  0  0  0  0  0
   -5.2134    0.8607   -0.5821 C   0  0  0  0  0  0  0  0  0  0  0  0
    4.5313   -1.9741   -0.2212 H   0  0  0  0  0  0  0  0  0  0  0  0
    3.7825   -1.4306   -1.7312 H   0  0  0  0  0  0  0  0  0  0  0  0
    5.5453   -1.4932   -1.5952 H   0  0  0  0  0  0  0  0  0  0  0  0
    4.6241    0.8432   -1.4061 H   0  0  0  0  0  0  0  0  0  0  0  0
    5.5185    0.3451    0.0627 H   0  0  0  0  0  0  0  0  0  0  0  0
    2.5687    2.7595    1.6003 H   0  0  0  0  0  0  0  0  0  0  0  0
    1.5772    3.1250    0.1621 H   0  0  0  0  0  0  0  0  0  0  0  0
   -0.4739    3.1049    1.5461 H   0  0  0  0  0  0  0  0  0  0  0  0
    0.4763    2.7028    2.9879 H   0  0  0  0  0  0  0  0  0  0  0  0
    0.6852    4.2741    2.1924 H   0  0  0  0  0  0  0  0  0  0  0  0
    0.7148   -2.4858   -2.0190 H   0  0  0  0  0  0  0  0  0  0  0  0
    0.2660   -0.7456   -1.9510 H   0  0  0  0  0  0  0  0  0  0  0  0
   -1.5805    0.9619    2.2737 H   0  0  0  0  0  0  0  0  0  0  0  0
   -2.5676   -0.2331    3.1588 H   0  0  0  0  0  0  0  0  0  0  0  0
   -0.4527   -1.4170    3.8372 H   0  0  0  0  0  0  0  0  0  0  0  0
    0.4941   -0.1643    3.0281 H   0  0  0  0  0  0  0  0  0  0  0  0
   -0.4983    0.2502    4.4391 H   0  0  0  0  0  0  0  0  0  0  0  0
   -3.9820   -0.4139   -1.8222 H   0  0  0  0  0  0  0  0  0  0  0  0
   -5.2452   -1.2839   -0.9108 H   0  0  0  0  0  0  0  0  0  0  0  0
   -4.4791    1.6632   -0.5570 H   0  0  0  0  0  0  0  0  0  0  0  0
   -5.9395    1.0697   -1.3609 H   0  0  0  0  0  0  0  0  0  0  0  0
   -5.7177    0.8140    0.3789 H   0  0  0  0  0  0  0  0  0  0  0  0
  1  2  1  0  0  0  0
  2  3  1  0  0  0  0
  3  4  2  0  0  0  0
  4  5  2  0  0  0  0
  4  6  2  0  0  0  0
  6  7  1  0  0  0  0
  7  8  1  0  0  0  0
  4  9  1  0  0  0  0
  9 10  1  0  0  0  0
 10 11  1  0  0  0  0
 11 12  1  0  0  0  0
 12 13  2  0  0  0  0
 12 14  2  0  0  0  0
 14 15  1  0  0  0  0
 15 16  1  0  0  0  0
 12 17  2  0  0  0  0
 17 18  1  0  0  0  0
 18 19  1  0  0  0  0
  1 20  1  0  0  0  0
  1 21  1  0  0  0  0
  1 22  1  0  0  0  0
  2 23  1  0  0  0  0
  2 24  1  0  0  0  0
  7 25  1  0  0  0  0
  7 26  1  0  0  0  0
  8 27  1  0  0  0  0
  8 28  1  0  0  0  0
  8 29  1  0  0  0  0
 10 30  1  0  0  0  0
 10 31  1  0  0  0  0
 15 32  1  0  0  0  0
 15 33  1  0  0  0  0
 16 34  1  0  0  0  0
 16 35  1  0  0  0  0
 16 36  1  0  0  0  0
 18 37  1  0  0  0  0
 18 38  1  0  0  0  0
 19 39  1  0  0  0  0
 19 40  1  0  0  0  0
 19 41  1  0  0  0  0
M  END
