 xtb: 6.7.1 (edcfbbe)
          04092505213D

 41 40  0     0  0            999 V2000
    2.0228    0.1531   -3.5787 C   0  0  0  0  0  0  0  0  0  0  0  0
    2.6422    0.5711   -2.2602 C   0  0  0  0  0  0  0  0  0  0  0  0
    2.4248   -0.4954   -1.3089 O   0  0  0  0  0  0  0  0  0  0  0  0
    2.2395   -0.2595    0.2417 P   0  0  0  0  0  0  0  0  0  0  0  0
    1.1851    1.3271    0.7529 S   0  0  0  0  0  0  0  0  0  0  0  0
    3.7523   -0.1882    0.7300 O   0  0  0  0  0  0  0  0  0  0  0  0
    4.1318    0.3049    2.0258 C   0  0  0  0  0  0  0  0  0  0  0  0
    3.6287   -0.5853    3.1437 C   0  0  0  0  0  0  0  0  0  0  0  0
    1.6156   -2.1928    0.7801 S   0  0  0  0  0  0  0  0  0  0  0  0
   -0.1897   -1.9963    0.6946 C   0  0  0  0  0  0  0  0  0  0  0  0
   -0.7599   -1.1507   -0.8075 S   0  0  0  0  0  0  0  0  0  0  0  0
   -2.0767    0.2496    0.0892 P   0  0  0  0  0  0  0  0  0  0  0  0
   -2.1138    0.3993    2.0386 S   0  0  0  0  0  0  0  0  0  0  0  0
   -3.4374   -0.3378   -0.5175 O   0  0  0  0  0  0  0  0  0  0  0  0
   -4.7145   -0.1020    0.0965 C   0  0  0  0  0  0  0  0  0  0  0  0
   -5.1722    1.3296   -0.0988 C   0  0  0  0  0  0  0  0  0  0  0  0
   -1.8287    1.6538   -0.6007 O   0  0  0  0  0  0  0  0  0  0  0  0
   -1.2973    1.8827   -1.9222 C   0  0  0  0  0  0  0  0  0  0  0  0
   -2.1132    1.2112   -3.0066 C   0  0  0  0  0  0  0  0  0  0  0  0
    2.1570    0.9479   -4.3050 H   0  0  0  0  0  0  0  0  0  0  0  0
    2.5018   -0.7522   -3.9390 H   0  0  0  0  0  0  0  0  0  0  0  0
    0.9621   -0.0459   -3.4483 H   0  0  0  0  0  0  0  0  0  0  0  0
    2.1893    1.4892   -1.8682 H   0  0  0  0  0  0  0  0  0  0  0  0
    3.7207    0.7184   -2.3506 H   0  0  0  0  0  0  0  0  0  0  0  0
    5.2216    0.3294    1.9875 H   0  0  0  0  0  0  0  0  0  0  0  0
    3.7389    1.3208    2.1366 H   0  0  0  0  0  0  0  0  0  0  0  0
    3.9285   -1.6159    2.9705 H   0  0  0  0  0  0  0  0  0  0  0  0
    4.0365   -0.2427    4.0893 H   0  0  0  0  0  0  0  0  0  0  0  0
    2.5408   -0.5399    3.1939 H   0  0  0  0  0  0  0  0  0  0  0  0
   -0.5397   -1.4276    1.5618 H   0  0  0  0  0  0  0  0  0  0  0  0
   -0.5899   -3.0073    0.7049 H   0  0  0  0  0  0  0  0  0  0  0  0
   -5.3808   -0.8130   -0.3940 H   0  0  0  0  0  0  0  0  0  0  0  0
   -4.6378   -0.3372    1.1630 H   0  0  0  0  0  0  0  0  0  0  0  0
   -5.2382    1.5665   -1.1574 H   0  0  0  0  0  0  0  0  0  0  0  0
   -6.1458    1.4645    0.3616 H   0  0  0  0  0  0  0  0  0  0  0  0
   -4.4597    2.0080    0.3712 H   0  0  0  0  0  0  0  0  0  0  0  0
   -1.3125    2.9700   -2.0137 H   0  0  0  0  0  0  0  0  0  0  0  0
   -0.2615    1.5333   -1.9332 H   0  0  0  0  0  0  0  0  0  0  0  0
   -1.6813    1.4491   -3.9738 H   0  0  0  0  0  0  0  0  0  0  0  0
   -2.1067    0.1305   -2.8682 H   0  0  0  0  0  0  0  0  0  0  0  0
   -3.1411    1.5626   -2.9770 H   0  0  0  0  0  0  0  0  0  0  0  0
  1  2  1  0  0  0  0
  2  3  1  0  0  0  0
  3  4  2  0  0  0  0
  4  5  2  0  0  0  0
  4  6  2  0  0  0  0
  6  7  1  0  0  0  0
  7  8  1  0  0  0  0
  4  9  1  0  0  0  0
  9 10  1  0  0  0  0
 10 11  1  0  0  0  0
 11 12  1  0  0  0  0
 12 13  2  0  0  0  0
 12 14  1  0  0  0  0
 14 15  1  0  0  0  0
 15 16  1  0  0  0  0
 12 17  2  0  0  0  0
 17 18  1  0  0  0  0
 18 19  1  0  0  0  0
  1 20  1  0  0  0  0
  1 21  1  0  0  0  0
  1 22  1  0  0  0  0
  2 23  1  0  0  0  0
  2 24  1  0  0  0  0
  7 25  1  0  0  0  0
  7 26  1  0  0  0  0
  8 27  1  0  0  0  0
  8 28  1  0  0  0  0
  8 29  1  0  0  0  0
 10 30  1  0  0  0  0
 10 31  1  0  0  0  0
 15 32  1  0  0  0  0
 15 33  1  0  0  0  0
 16 34  1  0  0  0  0
 16 35  1  0  0  0  0
 16 36  1  0  0  0  0
 18 37  1  0  0  0  0
 18 38  1  0  0  0  0
 19 39  1  0  0  0  0
 19 40  1  0  0  0  0
 19 41  1  0  0  0  0
M  END
