 xtb: 6.7.1 (edcfbbe)
          04092505203D

 41 40  0     0  0            999 V2000
    3.5185   -2.2410   -1.7782 C   0  0  0  0  0  0  0  0  0  0  0  0
    3.9786   -0.8029   -1.9052 C   0  0  0  0  0  0  0  0  0  0  0  0
    3.5442    0.0176   -0.8081 O   0  0  0  0  0  0  0  0  0  0  0  0
    2.0116    0.3682   -0.5241 P   0  0  0  0  0  0  0  0  0  0  0  0
    0.9505    0.6860   -2.1371 S   0  0  0  0  0  0  0  0  0  0  0  0
    2.1662    1.6594    0.3600 O   0  0  0  0  0  0  0  0  0  0  0  0
    3.1809    1.8889    1.3662 C   0  0  0  0  0  0  0  0  0  0  0  0
    3.0743    0.9199    2.5239 C   0  0  0  0  0  0  0  0  0  0  0  0
    1.3283   -1.2270    0.7166 S   0  0  0  0  0  0  0  0  0  0  0  0
   -0.0352   -1.8732   -0.2972 C   0  0  0  0  0  0  0  0  0  0  0  0
   -1.6507   -1.8265    0.5211 S   0  0  0  0  0  0  0  0  0  0  0  0
   -2.0630    0.2591    0.4354 P   0  0  0  0  0  0  0  0  0  0  0  0
   -0.8077    1.4995    1.2820 S   0  0  0  0  0  0  0  0  0  0  0  0
   -3.5683    0.3114    0.9446 O   0  0  0  0  0  0  0  0  0  0  0  0
   -4.0681   -0.3258    2.1365 C   0  0  0  0  0  0  0  0  0  0  0  0
   -3.2474   -0.0018    3.3666 C   0  0  0  0  0  0  0  0  0  0  0  0
   -2.2249    0.6335   -1.0853 O   0  0  0  0  0  0  0  0  0  0  0  0
   -3.1322   -0.0482   -1.9900 C   0  0  0  0  0  0  0  0  0  0  0  0
   -2.7081    0.2874   -3.4046 C   0  0  0  0  0  0  0  0  0  0  0  0
    3.7753   -2.6371   -0.7991 H   0  0  0  0  0  0  0  0  0  0  0  0
    2.4400   -2.2987   -1.9145 H   0  0  0  0  0  0  0  0  0  0  0  0
    4.0010   -2.8368   -2.5463 H   0  0  0  0  0  0  0  0  0  0  0  0
    3.6046   -0.3607   -2.8339 H   0  0  0  0  0  0  0  0  0  0  0  0
    5.0662   -0.7242   -1.8685 H   0  0  0  0  0  0  0  0  0  0  0  0
    4.1592    1.8267    0.8849 H   0  0  0  0  0  0  0  0  0  0  0  0
    2.9809    2.9135    1.6836 H   0  0  0  0  0  0  0  0  0  0  0  0
    2.0617    0.9288    2.9218 H   0  0  0  0  0  0  0  0  0  0  0  0
    3.3172   -0.0907    2.1984 H   0  0  0  0  0  0  0  0  0  0  0  0
    3.7688    1.2183    3.3029 H   0  0  0  0  0  0  0  0  0  0  0  0
    0.1542   -2.9268   -0.4860 H   0  0  0  0  0  0  0  0  0  0  0  0
   -0.0757   -1.2952   -1.2259 H   0  0  0  0  0  0  0  0  0  0  0  0
   -5.0865    0.0574    2.2227 H   0  0  0  0  0  0  0  0  0  0  0  0
   -4.0892   -1.4044    1.9584 H   0  0  0  0  0  0  0  0  0  0  0  0
   -3.1798    1.0748    3.5054 H   0  0  0  0  0  0  0  0  0  0  0  0
   -3.7119   -0.4505    4.2387 H   0  0  0  0  0  0  0  0  0  0  0  0
   -2.2378   -0.3965    3.2585 H   0  0  0  0  0  0  0  0  0  0  0  0
   -3.0759   -1.1238   -1.7978 H   0  0  0  0  0  0  0  0  0  0  0  0
   -4.1426    0.3049   -1.7754 H   0  0  0  0  0  0  0  0  0  0  0  0
   -1.6679    0.0099   -3.5600 H   0  0  0  0  0  0  0  0  0  0  0  0
   -3.3373   -0.2516   -4.1050 H   0  0  0  0  0  0  0  0  0  0  0  0
   -2.8013    1.3554   -3.5791 H   0  0  0  0  0  0  0  0  0  0  0  0
  1  2  1  0  0  0  0
  2  3  1  0  0  0  0
  3  4  2  0  0  0  0
  4  5  2  0  0  0  0
  4  6  2  0  0  0  0
  6  7  1  0  0  0  0
  7  8  1  0  0  0  0
  4  9  1  0  0  0  0
  9 10  1  0  0  0  0
 10 11  1  0  0  0  0
 11 12  1  0  0  0  0
 12 13  2  0  0  0  0
 12 14  2  0  0  0  0
 14 15  1  0  0  0  0
 15 16  1  0  0  0  0
 12 17  2  0  0  0  0
 17 18  1  0  0  0  0
 18 19  1  0  0  0  0
  1 20  1  0  0  0  0
  1 21  1  0  0  0  0
  1 22  1  0  0  0  0
  2 23  1  0  0  0  0
  2 24  1  0  0  0  0
  7 25  1  0  0  0  0
  7 26  1  0  0  0  0
  8 27  1  0  0  0  0
  8 28  1  0  0  0  0
  8 29  1  0  0  0  0
 10 30  1  0  0  0  0
 10 31  1  0  0  0  0
 15 32  1  0  0  0  0
 15 33  1  0  0  0  0
 16 34  1  0  0  0  0
 16 35  1  0  0  0  0
 16 36  1  0  0  0  0
 18 37  1  0  0  0  0
 18 38  1  0  0  0  0
 19 39  1  0  0  0  0
 19 40  1  0  0  0  0
 19 41  1  0  0  0  0
M  END
