 xtb: 6.7.1 (edcfbbe)
          04092505213D

 41 40  0     0  0            999 V2000
    5.0534   -0.2753   -2.6966 C   0  0  0  0  0  0  0  0  0  0  0  0
    3.6925   -0.7256   -2.2065 C   0  0  0  0  0  0  0  0  0  0  0  0
    3.4298   -0.0580   -0.9537 O   0  0  0  0  0  0  0  0  0  0  0  0
    1.9593    0.0333   -0.3673 P   0  0  0  0  0  0  0  0  0  0  0  0
    0.6360    0.7505   -1.6237 S   0  0  0  0  0  0  0  0  0  0  0  0
    2.1411    0.9491    0.8977 O   0  0  0  0  0  0  0  0  0  0  0  0
    3.3297    1.0492    1.7230 C   0  0  0  0  0  0  0  0  0  0  0  0
    3.6143   -0.2206    2.4970 C   0  0  0  0  0  0  0  0  0  0  0  0
    1.6328   -1.9731    0.2806 S   0  0  0  0  0  0  0  0  0  0  0  0
    0.0156   -1.8134    1.0774 C   0  0  0  0  0  0  0  0  0  0  0  0
   -1.3630   -1.6465   -0.1015 S   0  0  0  0  0  0  0  0  0  0  0  0
   -2.0539    0.2705    0.4503 P   0  0  0  0  0  0  0  0  0  0  0  0
   -0.9470    1.3558    1.6408 S   0  0  0  0  0  0  0  0  0  0  0  0
   -3.4239   -0.2200    1.1288 O   0  0  0  0  0  0  0  0  0  0  0  0
   -4.1276    0.5740    2.1009 C   0  0  0  0  0  0  0  0  0  0  0  0
   -4.7960    1.7805    1.4723 C   0  0  0  0  0  0  0  0  0  0  0  0
   -2.4702    1.0532   -0.8609 O   0  0  0  0  0  0  0  0  0  0  0  0
   -3.4265    0.5639   -1.8320 C   0  0  0  0  0  0  0  0  0  0  0  0
   -2.7399   -0.1828   -2.9582 C   0  0  0  0  0  0  0  0  0  0  0  0
    5.0561    0.7992   -2.8575 H   0  0  0  0  0  0  0  0  0  0  0  0
    5.8146   -0.5251   -1.9634 H   0  0  0  0  0  0  0  0  0  0  0  0
    5.2766   -0.7773   -3.6321 H   0  0  0  0  0  0  0  0  0  0  0  0
    3.6666   -1.8032   -2.0263 H   0  0  0  0  0  0  0  0  0  0  0  0
    2.9001   -0.4601   -2.9139 H   0  0  0  0  0  0  0  0  0  0  0  0
    4.1689    1.3145    1.0783 H   0  0  0  0  0  0  0  0  0  0  0  0
    3.0904    1.8803    2.3887 H   0  0  0  0  0  0  0  0  0  0  0  0
    3.8800   -1.0299    1.8209 H   0  0  0  0  0  0  0  0  0  0  0  0
    4.4433   -0.0374    3.1735 H   0  0  0  0  0  0  0  0  0  0  0  0
    2.7421   -0.5135    3.0765 H   0  0  0  0  0  0  0  0  0  0  0  0
    0.0166   -0.9403    1.7354 H   0  0  0  0  0  0  0  0  0  0  0  0
   -0.1286   -2.7355    1.6337 H   0  0  0  0  0  0  0  0  0  0  0  0
   -4.8553   -0.1174    2.5277 H   0  0  0  0  0  0  0  0  0  0  0  0
   -3.4150    0.8886    2.8701 H   0  0  0  0  0  0  0  0  0  0  0  0
   -4.0403    2.4371    1.0410 H   0  0  0  0  0  0  0  0  0  0  0  0
   -5.4843    1.4718    0.6897 H   0  0  0  0  0  0  0  0  0  0  0  0
   -5.3413    2.3266    2.2357 H   0  0  0  0  0  0  0  0  0  0  0  0
   -4.1579   -0.0691   -1.3224 H   0  0  0  0  0  0  0  0  0  0  0  0
   -3.9072    1.4722   -2.2000 H   0  0  0  0  0  0  0  0  0  0  0  0
   -3.4542   -0.3568   -3.7565 H   0  0  0  0  0  0  0  0  0  0  0  0
   -1.9084    0.4075   -3.3366 H   0  0  0  0  0  0  0  0  0  0  0  0
   -2.3518   -1.1375   -2.6112 H   0  0  0  0  0  0  0  0  0  0  0  0
  1  2  1  0  0  0  0
  2  3  1  0  0  0  0
  3  4  2  0  0  0  0
  4  5  2  0  0  0  0
  4  6  2  0  0  0  0
  6  7  1  0  0  0  0
  7  8  1  0  0  0  0
  4  9  1  0  0  0  0
  9 10  1  0  0  0  0
 10 11  1  0  0  0  0
 11 12  1  0  0  0  0
 12 13  2  0  0  0  0
 12 14  1  0  0  0  0
 14 15  1  0  0  0  0
 15 16  1  0  0  0  0
 12 17  2  0  0  0  0
 17 18  1  0  0  0  0
 18 19  1  0  0  0  0
  1 20  1  0  0  0  0
  1 21  1  0  0  0  0
  1 22  1  0  0  0  0
  2 23  1  0  0  0  0
  2 24  1  0  0  0  0
  7 25  1  0  0  0  0
  7 26  1  0  0  0  0
  8 27  1  0  0  0  0
  8 28  1  0  0  0  0
  8 29  1  0  0  0  0
 10 30  1  0  0  0  0
 10 31  1  0  0  0  0
 15 32  1  0  0  0  0
 15 33  1  0  0  0  0
 16 34  1  0  0  0  0
 16 35  1  0  0  0  0
 16 36  1  0  0  0  0
 18 37  1  0  0  0  0
 18 38  1  0  0  0  0
 19 39  1  0  0  0  0
 19 40  1  0  0  0  0
 19 41  1  0  0  0  0
M  END
