 xtb: 6.7.1 (edcfbbe)
          04032520153D

  8  7  0     0  0            999 V2000
   -1.4456    0.0144   -0.0005 C   0  0  0  0  0  0  0  0  0  0  0  0
    0.0514   -0.0878    0.0000 C   0  0  0  0  0  0  0  0  0  0  0  0
    0.6598   -1.1344    0.0005 O   0  0  0  0  0  0  0  0  0  0  0  0
    0.7200    1.0653    0.0000 O   0  0  0  0  0  0  0  0  0  0  0  0
   -1.7783    0.5529   -0.8848 H   0  0  0  0  0  0  0  0  0  0  0  0
   -1.8748   -0.9826   -0.0026 H   0  0  0  0  0  0  0  0  0  0  0  0
   -1.7789    0.5492    0.8858 H   0  0  0  0  0  0  0  0  0  0  0  0
    0.1424    1.8508   -0.0002 H   0  0  0  0  0  0  0  0  0  0  0  0
  1  2  1  0  0  0  0
  2  3  2  0  0  0  0
  2  4  1  0  0  0  0
  1  5  1  0  0  0  0
  1  6  1  0  0  0  0
  1  7  1  0  0  0  0
  4  8  1  0  0  0  0
M  END
