 xtb: 6.7.1 (edcfbbe)
          04092507313D

 38 37  0     0  0            999 V2000
    2.9071   -3.2592   -0.0285 C   0  0  0  0  0  0  0  0  0  0  0  0
    3.3542   -1.8121   -0.1574 C   0  0  0  0  0  0  0  0  0  0  0  0
    2.3175   -1.0095   -0.7546 O   0  0  0  0  0  0  0  0  0  0  0  0
    2.2282   -0.9793   -2.0742 C   0  0  0  0  0  0  0  0  0  0  0  0
    3.0005   -1.5369   -2.8207 O   0  0  0  0  0  0  0  0  0  0  0  0
    1.0530   -0.1553   -2.5575 C   0  0  0  0  0  0  0  0  0  0  0  0
    0.2094    0.4094   -1.4229 C   0  0  0  0  0  0  0  0  0  0  0  0
   -0.5649    1.0715   -1.8293 H   0  0  0  0  0  0  0  0  0  0  0  0
    1.0639    1.2491   -0.4911 C   0  0  0  0  0  0  0  0  0  0  0  0
    1.9252    1.9925   -0.9056 O   0  0  0  0  0  0  0  0  0  0  0  0
    0.7500    1.1076    0.7782 O   0  0  0  0  0  0  0  0  0  0  0  0
    1.4938    1.8980    1.7304 C   0  0  0  0  0  0  0  0  0  0  0  0
    1.3403    1.2886    3.1086 C   0  0  0  0  0  0  0  0  0  0  0  0
   -0.6502   -0.9230   -0.5260 S   0  0  0  0  0  0  0  0  0  0  0  0
   -1.9881    0.2910    0.5983 P   0  0  0  0  0  0  0  0  0  0  0  0
   -2.2415    2.1367   -0.0092 S   0  0  0  0  0  0  0  0  0  0  0  0
   -3.3294   -0.5874    0.5841 O   0  0  0  0  0  0  0  0  0  0  0  0
   -4.0899   -0.7589   -0.6157 C   0  0  0  0  0  0  0  0  0  0  0  0
   -1.6048    0.1754    2.1242 O   0  0  0  0  0  0  0  0  0  0  0  0
   -1.4577   -1.1085    2.7649 C   0  0  0  0  0  0  0  0  0  0  0  0
    3.6638   -3.8216    0.5081 H   0  0  0  0  0  0  0  0  0  0  0  0
    1.9649   -3.3128    0.5101 H   0  0  0  0  0  0  0  0  0  0  0  0
    2.7737   -3.6957   -1.0153 H   0  0  0  0  0  0  0  0  0  0  0  0
    4.2536   -1.7341   -0.7747 H   0  0  0  0  0  0  0  0  0  0  0  0
    3.5251   -1.3568    0.8186 H   0  0  0  0  0  0  0  0  0  0  0  0
    0.4488   -0.7806   -3.2164 H   0  0  0  0  0  0  0  0  0  0  0  0
    1.4572    0.6700   -3.1489 H   0  0  0  0  0  0  0  0  0  0  0  0
    2.5373    1.9188    1.4008 H   0  0  0  0  0  0  0  0  0  0  0  0
    1.0961    2.9170    1.6939 H   0  0  0  0  0  0  0  0  0  0  0  0
    1.9338    1.8615    3.8135 H   0  0  0  0  0  0  0  0  0  0  0  0
    0.2979    1.3189    3.4104 H   0  0  0  0  0  0  0  0  0  0  0  0
    1.6826    0.2579    3.1045 H   0  0  0  0  0  0  0  0  0  0  0  0
   -4.2832    0.2094   -1.0801 H   0  0  0  0  0  0  0  0  0  0  0  0
   -5.0228   -1.2239   -0.3079 H   0  0  0  0  0  0  0  0  0  0  0  0
   -3.5491   -1.4040   -1.3081 H   0  0  0  0  0  0  0  0  0  0  0  0
   -0.7306   -1.7113    2.2214 H   0  0  0  0  0  0  0  0  0  0  0  0
   -2.4177   -1.6197    2.7943 H   0  0  0  0  0  0  0  0  0  0  0  0
   -1.1051   -0.8913    3.7696 H   0  0  0  0  0  0  0  0  0  0  0  0
  1  2  1  0  0  0  0
  2  3  1  0  0  0  0
  3  4  1  0  0  0  0
  4  5  2  0  0  0  0
  4  6  1  0  0  0  0
  6  7  1  0  0  0  0
  7  8  1  0  0  0  0
  7  9  1  0  0  0  0
  9 10  2  0  0  0  0
  9 11  1  0  0  0  0
 11 12  1  0  0  0  0
 12 13  1  0  0  0  0
  7 14  1  0  0  0  0
 14 15  1  0  0  0  0
 15 16  2  0  0  0  0
 15 17  1  0  0  0  0
 17 18  1  0  0  0  0
 15 19  2  0  0  0  0
 19 20  1  0  0  0  0
  1 21  1  0  0  0  0
  1 22  1  0  0  0  0
  1 23  1  0  0  0  0
  2 24  1  0  0  0  0
  2 25  1  0  0  0  0
  6 26  1  0  0  0  0
  6 27  1  0  0  0  0
 12 28  1  0  0  0  0
 12 29  1  0  0  0  0
 13 30  1  0  0  0  0
 13 31  1  0  0  0  0
 13 32  1  0  0  0  0
 18 33  1  0  0  0  0
 18 34  1  0  0  0  0
 18 35  1  0  0  0  0
 20 36  1  0  0  0  0
 20 37  1  0  0  0  0
 20 38  1  0  0  0  0
M  END
