 xtb: 6.7.1 (edcfbbe)
          04092507313D

 38 37  0     0  0            999 V2000
    4.1440   -1.7007    1.3622 C   0  0  0  0  0  0  0  0  0  0  0  0
    2.7524   -1.9129    0.8008 C   0  0  0  0  0  0  0  0  0  0  0  0
    2.5511   -0.9651   -0.2660 O   0  0  0  0  0  0  0  0  0  0  0  0
    1.4717   -1.0752   -1.0067 C   0  0  0  0  0  0  0  0  0  0  0  0
    0.6090   -1.9168   -0.8472 O   0  0  0  0  0  0  0  0  0  0  0  0
    1.4137   -0.0153   -2.0878 C   0  0  0  0  0  0  0  0  0  0  0  0
    0.2359    0.9299   -1.8326 C   0  0  0  0  0  0  0  0  0  0  0  0
    0.1689    1.6583   -2.6455 H   0  0  0  0  0  0  0  0  0  0  0  0
    0.3692    1.6723   -0.5185 C   0  0  0  0  0  0  0  0  0  0  0  0
   -0.5661    1.8041    0.2523 O   0  0  0  0  0  0  0  0  0  0  0  0
    1.5696    2.1220   -0.3118 O   0  0  0  0  0  0  0  0  0  0  0  0
    1.8572    2.7610    0.9526 C   0  0  0  0  0  0  0  0  0  0  0  0
    3.3638    2.8571    1.0804 C   0  0  0  0  0  0  0  0  0  0  0  0
   -1.3799    0.0741   -1.8372 S   0  0  0  0  0  0  0  0  0  0  0  0
   -1.8049   -0.3404    0.2065 P   0  0  0  0  0  0  0  0  0  0  0  0
   -0.5723   -0.6662    1.7108 S   0  0  0  0  0  0  0  0  0  0  0  0
   -3.0363    0.6072    0.5461 O   0  0  0  0  0  0  0  0  0  0  0  0
   -3.0568    1.6097    1.5616 C   0  0  0  0  0  0  0  0  0  0  0  0
   -2.7407   -1.6204   -0.0416 O   0  0  0  0  0  0  0  0  0  0  0  0
   -2.2334   -2.9155   -0.3591 C   0  0  0  0  0  0  0  0  0  0  0  0
    4.2270   -0.7065    1.7904 H   0  0  0  0  0  0  0  0  0  0  0  0
    4.3291   -2.4360    2.1378 H   0  0  0  0  0  0  0  0  0  0  0  0
    4.8842   -1.8123    0.5756 H   0  0  0  0  0  0  0  0  0  0  0  0
    1.9765   -1.7496    1.5561 H   0  0  0  0  0  0  0  0  0  0  0  0
    2.6251   -2.9197    0.3907 H   0  0  0  0  0  0  0  0  0  0  0  0
    1.2579   -0.5093   -3.0468 H   0  0  0  0  0  0  0  0  0  0  0  0
    2.3441    0.5506   -2.0882 H   0  0  0  0  0  0  0  0  0  0  0  0
    1.3825    3.7460    0.9524 H   0  0  0  0  0  0  0  0  0  0  0  0
    1.4121    2.1570    1.7497 H   0  0  0  0  0  0  0  0  0  0  0  0
    3.6130    3.3102    2.0339 H   0  0  0  0  0  0  0  0  0  0  0  0
    3.8029    1.8650    1.0292 H   0  0  0  0  0  0  0  0  0  0  0  0
    3.7689    3.4634    0.2764 H   0  0  0  0  0  0  0  0  0  0  0  0
   -2.8308    2.5772    1.1165 H   0  0  0  0  0  0  0  0  0  0  0  0
   -2.3215    1.3821    2.3358 H   0  0  0  0  0  0  0  0  0  0  0  0
   -4.0623    1.5960    1.9761 H   0  0  0  0  0  0  0  0  0  0  0  0
   -1.4397   -3.1910    0.3372 H   0  0  0  0  0  0  0  0  0  0  0  0
   -1.8368   -2.9295   -1.3742 H   0  0  0  0  0  0  0  0  0  0  0  0
   -3.0800   -3.5906   -0.2638 H   0  0  0  0  0  0  0  0  0  0  0  0
  1  2  1  0  0  0  0
  2  3  1  0  0  0  0
  3  4  4  0  0  0  0
  4  5  2  0  0  0  0
  4  6  1  0  0  0  0
  6  7  1  0  0  0  0
  7  8  1  0  0  0  0
  7  9  1  0  0  0  0
  9 10  2  0  0  0  0
  9 11  4  0  0  0  0
 11 12  1  0  0  0  0
 12 13  1  0  0  0  0
  7 14  1  0  0  0  0
 14 15  1  0  0  0  0
 15 16  2  0  0  0  0
 15 17  1  0  0  0  0
 17 18  1  0  0  0  0
 15 19  1  0  0  0  0
 19 20  1  0  0  0  0
  1 21  1  0  0  0  0
  1 22  1  0  0  0  0
  1 23  1  0  0  0  0
  2 24  1  0  0  0  0
  2 25  1  0  0  0  0
  6 26  1  0  0  0  0
  6 27  1  0  0  0  0
 12 28  1  0  0  0  0
 12 29  1  0  0  0  0
 13 30  1  0  0  0  0
 13 31  1  0  0  0  0
 13 32  1  0  0  0  0
 18 33  1  0  0  0  0
 18 34  1  0  0  0  0
 18 35  1  0  0  0  0
 20 36  1  0  0  0  0
 20 37  1  0  0  0  0
 20 38  1  0  0  0  0
M  END
