 xtb: 6.7.1 (edcfbbe)
          04092507313D

 38 37  0     0  0            999 V2000
    4.1105   -2.2015    1.1093 C   0  0  0  0  0  0  0  0  0  0  0  0
    2.6507   -2.0972    0.7166 C   0  0  0  0  0  0  0  0  0  0  0  0
    2.5476   -1.1555   -0.3710 O   0  0  0  0  0  0  0  0  0  0  0  0
    1.3954   -1.0212   -0.9732 C   0  0  0  0  0  0  0  0  0  0  0  0
    0.3946   -1.6563   -0.6795 O   0  0  0  0  0  0  0  0  0  0  0  0
    1.4220    0.0165   -2.0702 C   0  0  0  0  0  0  0  0  0  0  0  0
    0.2919    1.0226   -1.8596 C   0  0  0  0  0  0  0  0  0  0  0  0
    0.2656    1.7355   -2.6887 H   0  0  0  0  0  0  0  0  0  0  0  0
    0.3990    1.8092   -0.5636 C   0  0  0  0  0  0  0  0  0  0  0  0
   -0.5637    2.3148   -0.0219 O   0  0  0  0  0  0  0  0  0  0  0  0
    1.6283    1.8848   -0.1291 O   0  0  0  0  0  0  0  0  0  0  0  0
    1.8683    2.5773    1.1148 C   0  0  0  0  0  0  0  0  0  0  0  0
    3.3647    2.5943    1.3492 C   0  0  0  0  0  0  0  0  0  0  0  0
   -1.3697    0.2475   -1.9040 S   0  0  0  0  0  0  0  0  0  0  0  0
   -1.7063   -0.2897    0.1087 P   0  0  0  0  0  0  0  0  0  0  0  0
   -0.5310   -0.2162    1.6915 S   0  0  0  0  0  0  0  0  0  0  0  0
   -2.9767    0.6696    0.2590 O   0  0  0  0  0  0  0  0  0  0  0  0
   -3.7196    0.7652    1.4769 C   0  0  0  0  0  0  0  0  0  0  0  0
   -2.4758   -1.6893    0.0046 O   0  0  0  0  0  0  0  0  0  0  0  0
   -1.9286   -2.9767    0.2870 C   0  0  0  0  0  0  0  0  0  0  0  0
    4.2099   -2.9102    1.9244 H   0  0  0  0  0  0  0  0  0  0  0  0
    4.7010   -2.5405    0.2635 H   0  0  0  0  0  0  0  0  0  0  0  0
    4.4811   -1.2336    1.4322 H   0  0  0  0  0  0  0  0  0  0  0  0
    2.0285   -1.7331    1.5409 H   0  0  0  0  0  0  0  0  0  0  0  0
    2.2486   -3.0576    0.3795 H   0  0  0  0  0  0  0  0  0  0  0  0
    1.2615   -0.4853   -3.0254 H   0  0  0  0  0  0  0  0  0  0  0  0
    2.3868    0.5214   -2.0625 H   0  0  0  0  0  0  0  0  0  0  0  0
    1.4476    3.5839    1.0352 H   0  0  0  0  0  0  0  0  0  0  0  0
    1.3338    2.0400    1.9055 H   0  0  0  0  0  0  0  0  0  0  0  0
    3.7428    1.5769    1.3806 H   0  0  0  0  0  0  0  0  0  0  0  0
    3.8634    3.1329    0.5494 H   0  0  0  0  0  0  0  0  0  0  0  0
    3.5708    3.0822    2.2957 H   0  0  0  0  0  0  0  0  0  0  0  0
   -3.0393    0.8521    2.3271 H   0  0  0  0  0  0  0  0  0  0  0  0
   -4.3513   -0.1150    1.5957 H   0  0  0  0  0  0  0  0  0  0  0  0
   -4.3222    1.6648    1.3822 H   0  0  0  0  0  0  0  0  0  0  0  0
   -1.4199   -3.3602   -0.5948 H   0  0  0  0  0  0  0  0  0  0  0  0
   -2.7765   -3.6032    0.5538 H   0  0  0  0  0  0  0  0  0  0  0  0
   -1.2225   -2.9083    1.1158 H   0  0  0  0  0  0  0  0  0  0  0  0
  1  2  1  0  0  0  0
  2  3  1  0  0  0  0
  3  4  4  0  0  0  0
  4  5  2  0  0  0  0
  4  6  1  0  0  0  0
  6  7  1  0  0  0  0
  7  8  1  0  0  0  0
  7  9  1  0  0  0  0
  9 10  2  0  0  0  0
  9 11  4  0  0  0  0
 11 12  1  0  0  0  0
 12 13  1  0  0  0  0
  7 14  1  0  0  0  0
 14 15  1  0  0  0  0
 15 16  2  0  0  0  0
 15 17  1  0  0  0  0
 17 18  1  0  0  0  0
 15 19  2  0  0  0  0
 19 20  1  0  0  0  0
  1 21  1  0  0  0  0
  1 22  1  0  0  0  0
  1 23  1  0  0  0  0
  2 24  1  0  0  0  0
  2 25  1  0  0  0  0
  6 26  1  0  0  0  0
  6 27  1  0  0  0  0
 12 28  1  0  0  0  0
 12 29  1  0  0  0  0
 13 30  1  0  0  0  0
 13 31  1  0  0  0  0
 13 32  1  0  0  0  0
 18 33  1  0  0  0  0
 18 34  1  0  0  0  0
 18 35  1  0  0  0  0
 20 36  1  0  0  0  0
 20 37  1  0  0  0  0
 20 38  1  0  0  0  0
M  END
