 xtb: 6.7.1 (edcfbbe)
          04092505203D

 41 40  0     0  0            999 V2000
    4.3900   -1.6418   -0.7252 C   0  0  0  0  0  0  0  0  0  0  0  0
    4.5669   -0.1434   -0.5886 C   0  0  0  0  0  0  0  0  0  0  0  0
    3.4817    0.4811    0.1199 O   0  0  0  0  0  0  0  0  0  0  0  0
    1.9948    0.5356   -0.4515 P   0  0  0  0  0  0  0  0  0  0  0  0
    1.8661    0.8155   -2.3803 S   0  0  0  0  0  0  0  0  0  0  0  0
    1.3745    1.7030    0.4064 O   0  0  0  0  0  0  0  0  0  0  0  0
    1.4265    1.7362    1.8534 C   0  0  0  0  0  0  0  0  0  0  0  0
    2.5176    2.6737    2.3264 C   0  0  0  0  0  0  0  0  0  0  0  0
    1.1510   -1.2653    0.3093 S   0  0  0  0  0  0  0  0  0  0  0  0
    0.0077   -1.6999   -1.0397 C   0  0  0  0  0  0  0  0  0  0  0  0
   -1.6723   -1.9974   -0.4568 S   0  0  0  0  0  0  0  0  0  0  0  0
   -2.1264   -0.0053    0.1361 P   0  0  0  0  0  0  0  0  0  0  0  0
   -1.4560    1.4163   -1.0351 S   0  0  0  0  0  0  0  0  0  0  0  0
   -1.5666    0.1858    1.5987 O   0  0  0  0  0  0  0  0  0  0  0  0
   -1.9637   -0.6858    2.6955 C   0  0  0  0  0  0  0  0  0  0  0  0
   -0.7544   -0.9750    3.5602 C   0  0  0  0  0  0  0  0  0  0  0  0
   -3.6891   -0.0695    0.4143 O   0  0  0  0  0  0  0  0  0  0  0  0
   -4.6775   -0.6121   -0.4820 C   0  0  0  0  0  0  0  0  0  0  0  0
   -4.6268    0.0123   -1.8603 C   0  0  0  0  0  0  0  0  0  0  0  0
    4.1874   -2.0913    0.2436 H   0  0  0  0  0  0  0  0  0  0  0  0
    3.5614   -1.8573   -1.3980 H   0  0  0  0  0  0  0  0  0  0  0  0
    5.2970   -2.0696   -1.1398 H   0  0  0  0  0  0  0  0  0  0  0  0
    4.6453    0.3245   -1.5746 H   0  0  0  0  0  0  0  0  0  0  0  0
    5.4434    0.1048    0.0118 H   0  0  0  0  0  0  0  0  0  0  0  0
    0.4353    2.0843    2.1532 H   0  0  0  0  0  0  0  0  0  0  0  0
    1.5877    0.7201    2.2249 H   0  0  0  0  0  0  0  0  0  0  0  0
    2.3647    3.6634    1.9046 H   0  0  0  0  0  0  0  0  0  0  0  0
    2.4867    2.7353    3.4097 H   0  0  0  0  0  0  0  0  0  0  0  0
    3.4907    2.3050    2.0132 H   0  0  0  0  0  0  0  0  0  0  0  0
    0.3406   -2.6337   -1.4856 H   0  0  0  0  0  0  0  0  0  0  0  0
    0.0131   -0.8871   -1.7716 H   0  0  0  0  0  0  0  0  0  0  0  0
   -2.7392   -0.1546    3.2493 H   0  0  0  0  0  0  0  0  0  0  0  0
   -2.3801   -1.6076    2.2801 H   0  0  0  0  0  0  0  0  0  0  0  0
   -1.0606   -1.6064    4.3881 H   0  0  0  0  0  0  0  0  0  0  0  0
    0.0081   -1.4910    2.9818 H   0  0  0  0  0  0  0  0  0  0  0  0
   -0.3396   -0.0499    3.9495 H   0  0  0  0  0  0  0  0  0  0  0  0
   -4.5255   -1.6932   -0.5415 H   0  0  0  0  0  0  0  0  0  0  0  0
   -5.6223   -0.3954    0.0197 H   0  0  0  0  0  0  0  0  0  0  0  0
   -4.7164    1.0940   -1.7914 H   0  0  0  0  0  0  0  0  0  0  0  0
   -3.6790   -0.2201   -2.3445 H   0  0  0  0  0  0  0  0  0  0  0  0
   -5.4384   -0.3791   -2.4650 H   0  0  0  0  0  0  0  0  0  0  0  0
  1  2  1  0  0  0  0
  2  3  1  0  0  0  0
  3  4  2  0  0  0  0
  4  5  2  0  0  0  0
  4  6  2  0  0  0  0
  6  7  1  0  0  0  0
  7  8  1  0  0  0  0
  4  9  1  0  0  0  0
  9 10  1  0  0  0  0
 10 11  1  0  0  0  0
 11 12  1  0  0  0  0
 12 13  2  0  0  0  0
 12 14  2  0  0  0  0
 14 15  1  0  0  0  0
 15 16  1  0  0  0  0
 12 17  2  0  0  0  0
 17 18  1  0  0  0  0
 18 19  1  0  0  0  0
  1 20  1  0  0  0  0
  1 21  1  0  0  0  0
  1 22  1  0  0  0  0
  2 23  1  0  0  0  0
  2 24  1  0  0  0  0
  7 25  1  0  0  0  0
  7 26  1  0  0  0  0
  8 27  1  0  0  0  0
  8 28  1  0  0  0  0
  8 29  1  0  0  0  0
 10 30  1  0  0  0  0
 10 31  1  0  0  0  0
 15 32  1  0  0  0  0
 15 33  1  0  0  0  0
 16 34  1  0  0  0  0
 16 35  1  0  0  0  0
 16 36  1  0  0  0  0
 18 37  1  0  0  0  0
 18 38  1  0  0  0  0
 19 39  1  0  0  0  0
 19 40  1  0  0  0  0
 19 41  1  0  0  0  0
M  END
