 xtb: 6.7.1 (edcfbbe)
          04092505203D

 41 40  0     0  0            999 V2000
    5.4747   -1.2173   -1.5172 C   0  0  0  0  0  0  0  0  0  0  0  0
    4.0408   -1.3222   -1.9997 C   0  0  0  0  0  0  0  0  0  0  0  0
    3.1521   -1.6054   -0.8992 O   0  0  0  0  0  0  0  0  0  0  0  0
    2.3474   -0.4613   -0.1428 P   0  0  0  0  0  0  0  0  0  0  0  0
    3.4048    1.0726    0.4794 S   0  0  0  0  0  0  0  0  0  0  0  0
    1.6137   -1.3074    0.9721 O   0  0  0  0  0  0  0  0  0  0  0  0
    2.1277   -1.4157    2.3245 C   0  0  0  0  0  0  0  0  0  0  0  0
    1.4465   -0.4193    3.2402 C   0  0  0  0  0  0  0  0  0  0  0  0
    0.7801   -0.0132   -1.4870 S   0  0  0  0  0  0  0  0  0  0  0  0
    0.1861    1.4615   -0.6099 C   0  0  0  0  0  0  0  0  0  0  0  0
   -0.8634    1.0549    0.7984 S   0  0  0  0  0  0  0  0  0  0  0  0
   -2.5215    0.3583   -0.3542 P   0  0  0  0  0  0  0  0  0  0  0  0
   -2.8424    1.3806   -1.9942 S   0  0  0  0  0  0  0  0  0  0  0  0
   -3.7301    0.2935    0.6740 O   0  0  0  0  0  0  0  0  0  0  0  0
   -4.5912    1.4200    0.9257 C   0  0  0  0  0  0  0  0  0  0  0  0
   -3.8629    2.5645    1.5991 C   0  0  0  0  0  0  0  0  0  0  0  0
   -2.2594   -1.1660   -0.6710 O   0  0  0  0  0  0  0  0  0  0  0  0
   -2.5299   -2.2825    0.2105 C   0  0  0  0  0  0  0  0  0  0  0  0
   -1.7282   -2.2181    1.4928 C   0  0  0  0  0  0  0  0  0  0  0  0
    6.1288   -1.0701   -2.3704 H   0  0  0  0  0  0  0  0  0  0  0  0
    5.5829   -0.3741   -0.8384 H   0  0  0  0  0  0  0  0  0  0  0  0
    5.7601   -2.1270   -0.9967 H   0  0  0  0  0  0  0  0  0  0  0  0
    3.9107   -2.1622   -2.6845 H   0  0  0  0  0  0  0  0  0  0  0  0
    3.7236   -0.3992   -2.4934 H   0  0  0  0  0  0  0  0  0  0  0  0
    1.9128   -2.4444    2.6167 H   0  0  0  0  0  0  0  0  0  0  0  0
    3.2085   -1.2543    2.3099 H   0  0  0  0  0  0  0  0  0  0  0  0
    0.3691   -0.5508    3.2114 H   0  0  0  0  0  0  0  0  0  0  0  0
    1.8031   -0.5691    4.2540 H   0  0  0  0  0  0  0  0  0  0  0  0
    1.6791    0.5967    2.9286 H   0  0  0  0  0  0  0  0  0  0  0  0
   -0.3884    2.0439   -1.3309 H   0  0  0  0  0  0  0  0  0  0  0  0
    1.0404    2.0246   -0.2314 H   0  0  0  0  0  0  0  0  0  0  0  0
   -5.0196    1.7451   -0.0272 H   0  0  0  0  0  0  0  0  0  0  0  0
   -5.3734    1.0079    1.5648 H   0  0  0  0  0  0  0  0  0  0  0  0
   -3.3387    2.2148    2.4848 H   0  0  0  0  0  0  0  0  0  0  0  0
   -3.1395    3.0014    0.9124 H   0  0  0  0  0  0  0  0  0  0  0  0
   -4.5814    3.3270    1.8823 H   0  0  0  0  0  0  0  0  0  0  0  0
   -3.6016   -2.2997    0.4182 H   0  0  0  0  0  0  0  0  0  0  0  0
   -2.2529   -3.1472   -0.3949 H   0  0  0  0  0  0  0  0  0  0  0  0
   -2.0351   -1.3564    2.0829 H   0  0  0  0  0  0  0  0  0  0  0  0
   -1.9037   -3.1229    2.0664 H   0  0  0  0  0  0  0  0  0  0  0  0
   -0.6673   -2.1361    1.2684 H   0  0  0  0  0  0  0  0  0  0  0  0
  1  2  1  0  0  0  0
  2  3  1  0  0  0  0
  3  4  2  0  0  0  0
  4  5  2  0  0  0  0
  4  6  2  0  0  0  0
  6  7  1  0  0  0  0
  7  8  1  0  0  0  0
  4  9  1  0  0  0  0
  9 10  1  0  0  0  0
 10 11  1  0  0  0  0
 11 12  1  0  0  0  0
 12 13  2  0  0  0  0
 12 14  2  0  0  0  0
 14 15  1  0  0  0  0
 15 16  1  0  0  0  0
 12 17  2  0  0  0  0
 17 18  1  0  0  0  0
 18 19  1  0  0  0  0
  1 20  1  0  0  0  0
  1 21  1  0  0  0  0
  1 22  1  0  0  0  0
  2 23  1  0  0  0  0
  2 24  1  0  0  0  0
  7 25  1  0  0  0  0
  7 26  1  0  0  0  0
  8 27  1  0  0  0  0
  8 28  1  0  0  0  0
  8 29  1  0  0  0  0
 10 30  1  0  0  0  0
 10 31  1  0  0  0  0
 15 32  1  0  0  0  0
 15 33  1  0  0  0  0
 16 34  1  0  0  0  0
 16 35  1  0  0  0  0
 16 36  1  0  0  0  0
 18 37  1  0  0  0  0
 18 38  1  0  0  0  0
 19 39  1  0  0  0  0
 19 40  1  0  0  0  0
 19 41  1  0  0  0  0
M  END
