 xtb: 6.7.1 (edcfbbe)
          04092507313D

 38 37  0     0  0            999 V2000
    5.4035   -2.4134   -1.6170 C   0  0  0  0  0  0  0  0  0  0  0  0
    4.9230   -1.2049   -0.8294 C   0  0  0  0  0  0  0  0  0  0  0  0
    3.6950   -1.4965   -0.1343 O   0  0  0  0  0  0  0  0  0  0  0  0
    2.5575   -1.3449   -0.7808 C   0  0  0  0  0  0  0  0  0  0  0  0
    2.4566   -0.9443   -1.9190 O   0  0  0  0  0  0  0  0  0  0  0  0
    1.3756   -1.7444    0.0855 C   0  0  0  0  0  0  0  0  0  0  0  0
    0.2474   -0.7422   -0.1070 C   0  0  0  0  0  0  0  0  0  0  0  0
    0.0522   -0.6085   -1.1799 H   0  0  0  0  0  0  0  0  0  0  0  0
    0.5572    0.6282    0.4563 C   0  0  0  0  0  0  0  0  0  0  0  0
   -0.3141    1.3436    0.9133 O   0  0  0  0  0  0  0  0  0  0  0  0
    1.8186    0.9428    0.3681 O   0  0  0  0  0  0  0  0  0  0  0  0
    2.2456    2.2363    0.8552 C   0  0  0  0  0  0  0  0  0  0  0  0
    2.5935    2.1605    2.3323 C   0  0  0  0  0  0  0  0  0  0  0  0
   -1.3020   -1.3112    0.6774 S   0  0  0  0  0  0  0  0  0  0  0  0
   -2.5571    0.2998    0.1106 P   0  0  0  0  0  0  0  0  0  0  0  0
   -2.1168    1.2719   -1.5438 S   0  0  0  0  0  0  0  0  0  0  0  0
   -3.9480   -0.4883   -0.0101 O   0  0  0  0  0  0  0  0  0  0  0  0
   -4.1677   -1.4488   -1.0462 C   0  0  0  0  0  0  0  0  0  0  0  0
   -3.0136    1.1195    1.3875 O   0  0  0  0  0  0  0  0  0  0  0  0
   -2.7477    2.5030    1.6270 C   0  0  0  0  0  0  0  0  0  0  0  0
    6.3629   -2.1880   -2.0710 H   0  0  0  0  0  0  0  0  0  0  0  0
    5.5108   -3.2710   -0.9587 H   0  0  0  0  0  0  0  0  0  0  0  0
    4.6908   -2.6553   -2.4021 H   0  0  0  0  0  0  0  0  0  0  0  0
    4.7527   -0.3530   -1.4937 H   0  0  0  0  0  0  0  0  0  0  0  0
    5.6270   -0.9405   -0.0405 H   0  0  0  0  0  0  0  0  0  0  0  0
    1.6879   -1.8036    1.1265 H   0  0  0  0  0  0  0  0  0  0  0  0
    1.0307   -2.7282   -0.2380 H   0  0  0  0  0  0  0  0  0  0  0  0
    3.1187    2.4773    0.2489 H   0  0  0  0  0  0  0  0  0  0  0  0
    1.4455    2.9583    0.6723 H   0  0  0  0  0  0  0  0  0  0  0  0
    1.7107    1.9075    2.9148 H   0  0  0  0  0  0  0  0  0  0  0  0
    3.3567    1.4055    2.4990 H   0  0  0  0  0  0  0  0  0  0  0  0
    2.9663    3.1254    2.6593 H   0  0  0  0  0  0  0  0  0  0  0  0
   -3.8932   -1.0255   -2.0147 H   0  0  0  0  0  0  0  0  0  0  0  0
   -5.2316   -1.6696   -1.0182 H   0  0  0  0  0  0  0  0  0  0  0  0
   -3.5844   -2.3501   -0.8550 H   0  0  0  0  0  0  0  0  0  0  0  0
   -2.4348    2.9976    0.7059 H   0  0  0  0  0  0  0  0  0  0  0  0
   -1.9611    2.5876    2.3740 H   0  0  0  0  0  0  0  0  0  0  0  0
   -3.6786    2.9332    1.9903 H   0  0  0  0  0  0  0  0  0  0  0  0
  1  2  1  0  0  0  0
  2  3  1  0  0  0  0
  3  4  1  0  0  0  0
  4  5  2  0  0  0  0
  4  6  1  0  0  0  0
  6  7  1  0  0  0  0
  7  8  1  0  0  0  0
  7  9  1  0  0  0  0
  9 10  2  0  0  0  0
  9 11  4  0  0  0  0
 11 12  1  0  0  0  0
 12 13  1  0  0  0  0
  7 14  1  0  0  0  0
 14 15  1  0  0  0  0
 15 16  2  0  0  0  0
 15 17  1  0  0  0  0
 17 18  1  0  0  0  0
 15 19  2  0  0  0  0
 19 20  1  0  0  0  0
  1 21  1  0  0  0  0
  1 22  1  0  0  0  0
  1 23  1  0  0  0  0
  2 24  1  0  0  0  0
  2 25  1  0  0  0  0
  6 26  1  0  0  0  0
  6 27  1  0  0  0  0
 12 28  1  0  0  0  0
 12 29  1  0  0  0  0
 13 30  1  0  0  0  0
 13 31  1  0  0  0  0
 13 32  1  0  0  0  0
 18 33  1  0  0  0  0
 18 34  1  0  0  0  0
 18 35  1  0  0  0  0
 20 36  1  0  0  0  0
 20 37  1  0  0  0  0
 20 38  1  0  0  0  0
M  END
