 xtb: 6.7.1 (edcfbbe)
          04092505203D

 41 40  0     0  0            999 V2000
    1.0566   -0.8681    3.2049 C   0  0  0  0  0  0  0  0  0  0  0  0
    1.2419    0.4735    2.5231 C   0  0  0  0  0  0  0  0  0  0  0  0
    2.4293    0.5175    1.7149 O   0  0  0  0  0  0  0  0  0  0  0  0
    2.6318   -0.2152    0.3254 P   0  0  0  0  0  0  0  0  0  0  0  0
    2.8409   -2.1693    0.3127 S   0  0  0  0  0  0  0  0  0  0  0  0
    3.9339    0.5913   -0.0643 O   0  0  0  0  0  0  0  0  0  0  0  0
    4.8714    0.0918   -1.0338 C   0  0  0  0  0  0  0  0  0  0  0  0
    4.3167    0.1496   -2.4434 C   0  0  0  0  0  0  0  0  0  0  0  0
    1.1029    0.5554   -0.9546 S   0  0  0  0  0  0  0  0  0  0  0  0
    0.1526   -0.9677   -1.1992 C   0  0  0  0  0  0  0  0  0  0  0  0
   -1.0011   -1.3201    0.1566 S   0  0  0  0  0  0  0  0  0  0  0  0
   -2.3051    0.2957   -0.2177 P   0  0  0  0  0  0  0  0  0  0  0  0
   -2.6443    0.7671   -2.0942 S   0  0  0  0  0  0  0  0  0  0  0  0
   -1.6002    1.4121    0.6633 O   0  0  0  0  0  0  0  0  0  0  0  0
   -1.8321    2.8185    0.4450 C   0  0  0  0  0  0  0  0  0  0  0  0
   -3.2378    3.2225    0.8363 C   0  0  0  0  0  0  0  0  0  0  0  0
   -3.5975   -0.0277    0.6471 O   0  0  0  0  0  0  0  0  0  0  0  0
   -4.7136   -0.7646    0.1182 C   0  0  0  0  0  0  0  0  0  0  0  0
   -4.3614   -2.2109   -0.1638 C   0  0  0  0  0  0  0  0  0  0  0  0
    0.2086   -0.8105    3.8798 H   0  0  0  0  0  0  0  0  0  0  0  0
    0.8664   -1.6487    2.4703 H   0  0  0  0  0  0  0  0  0  0  0  0
    1.9497   -1.1285    3.7671 H   0  0  0  0  0  0  0  0  0  0  0  0
    1.4015    1.2686    3.2543 H   0  0  0  0  0  0  0  0  0  0  0  0
    0.3726    0.7198    1.9049 H   0  0  0  0  0  0  0  0  0  0  0  0
    5.7401    0.7409   -0.9165 H   0  0  0  0  0  0  0  0  0  0  0  0
    5.1374   -0.9363   -0.7665 H   0  0  0  0  0  0  0  0  0  0  0  0
    5.0984   -0.1148   -3.1483 H   0  0  0  0  0  0  0  0  0  0  0  0
    3.4935   -0.5556   -2.5496 H   0  0  0  0  0  0  0  0  0  0  0  0
    3.9530    1.1497   -2.6651 H   0  0  0  0  0  0  0  0  0  0  0  0
    0.8339   -1.8181   -1.2509 H   0  0  0  0  0  0  0  0  0  0  0  0
   -0.4072   -0.8408   -2.1250 H   0  0  0  0  0  0  0  0  0  0  0  0
   -1.0806    3.3090    1.0652 H   0  0  0  0  0  0  0  0  0  0  0  0
   -1.6414    3.0398   -0.6101 H   0  0  0  0  0  0  0  0  0  0  0  0
   -3.9578    2.7529    0.1674 H   0  0  0  0  0  0  0  0  0  0  0  0
   -3.4483    2.9090    1.8555 H   0  0  0  0  0  0  0  0  0  0  0  0
   -3.3370    4.3008    0.7600 H   0  0  0  0  0  0  0  0  0  0  0  0
   -5.4754   -0.6788    0.8942 H   0  0  0  0  0  0  0  0  0  0  0  0
   -5.0539   -0.2678   -0.7962 H   0  0  0  0  0  0  0  0  0  0  0  0
   -3.9204   -2.6718    0.7165 H   0  0  0  0  0  0  0  0  0  0  0  0
   -5.2597   -2.7521   -0.4435 H   0  0  0  0  0  0  0  0  0  0  0  0
   -3.6464   -2.2678   -0.9837 H   0  0  0  0  0  0  0  0  0  0  0  0
  1  2  1  0  0  0  0
  2  3  1  0  0  0  0
  3  4  2  0  0  0  0
  4  5  2  0  0  0  0
  4  6  2  0  0  0  0
  6  7  1  0  0  0  0
  7  8  1  0  0  0  0
  4  9  1  0  0  0  0
  9 10  1  0  0  0  0
 10 11  1  0  0  0  0
 11 12  1  0  0  0  0
 12 13  2  0  0  0  0
 12 14  2  0  0  0  0
 14 15  1  0  0  0  0
 15 16  1  0  0  0  0
 12 17  2  0  0  0  0
 17 18  1  0  0  0  0
 18 19  1  0  0  0  0
  1 20  1  0  0  0  0
  1 21  1  0  0  0  0
  1 22  1  0  0  0  0
  2 23  1  0  0  0  0
  2 24  1  0  0  0  0
  7 25  1  0  0  0  0
  7 26  1  0  0  0  0
  8 27  1  0  0  0  0
  8 28  1  0  0  0  0
  8 29  1  0  0  0  0
 10 30  1  0  0  0  0
 10 31  1  0  0  0  0
 15 32  1  0  0  0  0
 15 33  1  0  0  0  0
 16 34  1  0  0  0  0
 16 35  1  0  0  0  0
 16 36  1  0  0  0  0
 18 37  1  0  0  0  0
 18 38  1  0  0  0  0
 19 39  1  0  0  0  0
 19 40  1  0  0  0  0
 19 41  1  0  0  0  0
M  END
