 xtb: 6.7.1 (edcfbbe)
          04092505203D

 41 40  0     0  0            999 V2000
    4.7007   -1.0154   -1.3279 C   0  0  0  0  0  0  0  0  0  0  0  0
    4.3873   -0.6286    0.1020 C   0  0  0  0  0  0  0  0  0  0  0  0
    3.4460    0.4571    0.1977 O   0  0  0  0  0  0  0  0  0  0  0  0
    1.9879    0.4847   -0.4396 P   0  0  0  0  0  0  0  0  0  0  0  0
    1.8413    0.7599   -2.3700 S   0  0  0  0  0  0  0  0  0  0  0  0
    1.3426    1.6828    0.3532 O   0  0  0  0  0  0  0  0  0  0  0  0
    1.3804    1.7947    1.7961 C   0  0  0  0  0  0  0  0  0  0  0  0
    2.4254    2.8056    2.2200 C   0  0  0  0  0  0  0  0  0  0  0  0
    1.1653   -1.3317    0.3087 S   0  0  0  0  0  0  0  0  0  0  0  0
    0.0066   -1.7506   -1.0285 C   0  0  0  0  0  0  0  0  0  0  0  0
   -1.6850   -1.9926   -0.4457 S   0  0  0  0  0  0  0  0  0  0  0  0
   -2.0955    0.0156    0.1228 P   0  0  0  0  0  0  0  0  0  0  0  0
   -1.5024    1.4150   -1.1118 S   0  0  0  0  0  0  0  0  0  0  0  0
   -1.4772    0.1727    1.5674 O   0  0  0  0  0  0  0  0  0  0  0  0
   -1.9063   -0.6752    2.6716 C   0  0  0  0  0  0  0  0  0  0  0  0
   -0.7197   -0.9379    3.5749 C   0  0  0  0  0  0  0  0  0  0  0  0
   -3.6521   -0.0061    0.4462 O   0  0  0  0  0  0  0  0  0  0  0  0
   -4.6628    0.2311   -0.5498 C   0  0  0  0  0  0  0  0  0  0  0  0
   -4.6885   -0.8461   -1.6144 C   0  0  0  0  0  0  0  0  0  0  0  0
    3.8125   -1.4131   -1.8161 H   0  0  0  0  0  0  0  0  0  0  0  0
    5.0363   -0.1477   -1.8909 H   0  0  0  0  0  0  0  0  0  0  0  0
    5.4788   -1.7718   -1.3332 H   0  0  0  0  0  0  0  0  0  0  0  0
    5.2722   -0.2430    0.6114 H   0  0  0  0  0  0  0  0  0  0  0  0
    3.9827   -1.4813    0.6542 H   0  0  0  0  0  0  0  0  0  0  0  0
    0.3732    2.1138    2.0734 H   0  0  0  0  0  0  0  0  0  0  0  0
    1.5836    0.8086    2.2232 H   0  0  0  0  0  0  0  0  0  0  0  0
    2.3992    2.9131    3.2998 H   0  0  0  0  0  0  0  0  0  0  0  0
    3.4136    2.4737    1.9125 H   0  0  0  0  0  0  0  0  0  0  0  0
    2.2203    3.7669    1.7566 H   0  0  0  0  0  0  0  0  0  0  0  0
    0.3136   -2.7008   -1.4583 H   0  0  0  0  0  0  0  0  0  0  0  0
    0.0407   -0.9508   -1.7744 H   0  0  0  0  0  0  0  0  0  0  0  0
   -2.7007   -0.1378    3.1915 H   0  0  0  0  0  0  0  0  0  0  0  0
   -2.3073   -1.6066    2.2622 H   0  0  0  0  0  0  0  0  0  0  0  0
   -0.3214   -0.0019    3.9555 H   0  0  0  0  0  0  0  0  0  0  0  0
   -1.0448   -1.5536    4.4073 H   0  0  0  0  0  0  0  0  0  0  0  0
    0.0609   -1.4614    3.0284 H   0  0  0  0  0  0  0  0  0  0  0  0
   -5.5898    0.2527    0.0251 H   0  0  0  0  0  0  0  0  0  0  0  0
   -4.4789    1.2116   -0.9996 H   0  0  0  0  0  0  0  0  0  0  0  0
   -4.7505   -1.8306   -1.1576 H   0  0  0  0  0  0  0  0  0  0  0  0
   -5.5479   -0.6915   -2.2588 H   0  0  0  0  0  0  0  0  0  0  0  0
   -3.7837   -0.7936   -2.2185 H   0  0  0  0  0  0  0  0  0  0  0  0
  1  2  1  0  0  0  0
  2  3  1  0  0  0  0
  3  4  2  0  0  0  0
  4  5  2  0  0  0  0
  4  6  2  0  0  0  0
  6  7  1  0  0  0  0
  7  8  1  0  0  0  0
  4  9  1  0  0  0  0
  9 10  1  0  0  0  0
 10 11  1  0  0  0  0
 11 12  1  0  0  0  0
 12 13  2  0  0  0  0
 12 14  2  0  0  0  0
 14 15  1  0  0  0  0
 15 16  1  0  0  0  0
 12 17  2  0  0  0  0
 17 18  1  0  0  0  0
 18 19  1  0  0  0  0
  1 20  1  0  0  0  0
  1 21  1  0  0  0  0
  1 22  1  0  0  0  0
  2 23  1  0  0  0  0
  2 24  1  0  0  0  0
  7 25  1  0  0  0  0
  7 26  1  0  0  0  0
  8 27  1  0  0  0  0
  8 28  1  0  0  0  0
  8 29  1  0  0  0  0
 10 30  1  0  0  0  0
 10 31  1  0  0  0  0
 15 32  1  0  0  0  0
 15 33  1  0  0  0  0
 16 34  1  0  0  0  0
 16 35  1  0  0  0  0
 16 36  1  0  0  0  0
 18 37  1  0  0  0  0
 18 38  1  0  0  0  0
 19 39  1  0  0  0  0
 19 40  1  0  0  0  0
 19 41  1  0  0  0  0
M  END
