 xtb: 6.7.1 (edcfbbe)
          04092505213D

 41 40  0     0  0            999 V2000
    4.2090    2.3280   -0.7242 C   0  0  0  0  0  0  0  0  0  0  0  0
    4.5475    0.8579   -0.5840 C   0  0  0  0  0  0  0  0  0  0  0  0
    3.3964    0.0154   -0.7758 O   0  0  0  0  0  0  0  0  0  0  0  0
    2.1878   -0.0202    0.2536 P   0  0  0  0  0  0  0  0  0  0  0  0
    2.7006    0.0810    2.1464 S   0  0  0  0  0  0  0  0  0  0  0  0
    1.4143   -1.3281   -0.1936 O   0  0  0  0  0  0  0  0  0  0  0  0
    1.6530   -2.6178    0.3980 C   0  0  0  0  0  0  0  0  0  0  0  0
    3.0342   -3.1425    0.0688 C   0  0  0  0  0  0  0  0  0  0  0  0
    0.8491    1.4331   -0.4649 S   0  0  0  0  0  0  0  0  0  0  0  0
   -0.1729    1.5414    1.0320 C   0  0  0  0  0  0  0  0  0  0  0  0
   -1.0212   -0.0089    1.4495 S   0  0  0  0  0  0  0  0  0  0  0  0
   -2.1295   -0.3272   -0.3380 P   0  0  0  0  0  0  0  0  0  0  0  0
   -1.3277   -1.1328   -1.9253 S   0  0  0  0  0  0  0  0  0  0  0  0
   -2.7916    1.1109   -0.5447 O   0  0  0  0  0  0  0  0  0  0  0  0
   -2.8645    1.8080   -1.8070 C   0  0  0  0  0  0  0  0  0  0  0  0
   -2.1138    3.1221   -1.7279 C   0  0  0  0  0  0  0  0  0  0  0  0
   -3.2881   -1.2666    0.1932 O   0  0  0  0  0  0  0  0  0  0  0  0
   -4.1832   -0.8905    1.2722 C   0  0  0  0  0  0  0  0  0  0  0  0
   -5.5164   -1.5674    1.0285 C   0  0  0  0  0  0  0  0  0  0  0  0
    5.1241    2.9107   -0.6954 H   0  0  0  0  0  0  0  0  0  0  0  0
    3.6939    2.5086   -1.6645 H   0  0  0  0  0  0  0  0  0  0  0  0
    3.5641    2.6417    0.0957 H   0  0  0  0  0  0  0  0  0  0  0  0
    4.9634    0.6520    0.4077 H   0  0  0  0  0  0  0  0  0  0  0  0
    5.2437    0.5274   -1.3560 H   0  0  0  0  0  0  0  0  0  0  0  0
    1.5148   -2.5304    1.4813 H   0  0  0  0  0  0  0  0  0  0  0  0
    0.8663   -3.2454   -0.0253 H   0  0  0  0  0  0  0  0  0  0  0  0
    3.1872   -3.1395   -1.0074 H   0  0  0  0  0  0  0  0  0  0  0  0
    3.7901   -2.5117    0.5359 H   0  0  0  0  0  0  0  0  0  0  0  0
    3.1341   -4.1548    0.4478 H   0  0  0  0  0  0  0  0  0  0  0  0
   -0.9048    2.3267    0.8623 H   0  0  0  0  0  0  0  0  0  0  0  0
    0.4609    1.7658    1.8902 H   0  0  0  0  0  0  0  0  0  0  0  0
   -2.4545    1.1626   -2.5908 H   0  0  0  0  0  0  0  0  0  0  0  0
   -3.9283    1.9714   -1.9900 H   0  0  0  0  0  0  0  0  0  0  0  0
   -2.2626    3.6641   -2.6561 H   0  0  0  0  0  0  0  0  0  0  0  0
   -2.4894    3.7210   -0.9028 H   0  0  0  0  0  0  0  0  0  0  0  0
   -1.0483    2.9459   -1.5913 H   0  0  0  0  0  0  0  0  0  0  0  0
   -3.7282   -1.2260    2.2069 H   0  0  0  0  0  0  0  0  0  0  0  0
   -4.2828    0.1971    1.2856 H   0  0  0  0  0  0  0  0  0  0  0  0
   -5.3814   -2.6440    0.9765 H   0  0  0  0  0  0  0  0  0  0  0  0
   -6.1913   -1.3279    1.8439 H   0  0  0  0  0  0  0  0  0  0  0  0
   -5.9465   -1.2252    0.0913 H   0  0  0  0  0  0  0  0  0  0  0  0
  1  2  1  0  0  0  0
  2  3  1  0  0  0  0
  3  4  2  0  0  0  0
  4  5  2  0  0  0  0
  4  6  2  0  0  0  0
  6  7  1  0  0  0  0
  7  8  1  0  0  0  0
  4  9  1  0  0  0  0
  9 10  1  0  0  0  0
 10 11  1  0  0  0  0
 11 12  1  0  0  0  0
 12 13  2  0  0  0  0
 12 14  2  0  0  0  0
 14 15  1  0  0  0  0
 15 16  1  0  0  0  0
 12 17  2  0  0  0  0
 17 18  1  0  0  0  0
 18 19  1  0  0  0  0
  1 20  1  0  0  0  0
  1 21  1  0  0  0  0
  1 22  1  0  0  0  0
  2 23  1  0  0  0  0
  2 24  1  0  0  0  0
  7 25  1  0  0  0  0
  7 26  1  0  0  0  0
  8 27  1  0  0  0  0
  8 28  1  0  0  0  0
  8 29  1  0  0  0  0
 10 30  1  0  0  0  0
 10 31  1  0  0  0  0
 15 32  1  0  0  0  0
 15 33  1  0  0  0  0
 16 34  1  0  0  0  0
 16 35  1  0  0  0  0
 16 36  1  0  0  0  0
 18 37  1  0  0  0  0
 18 38  1  0  0  0  0
 19 39  1  0  0  0  0
 19 40  1  0  0  0  0
 19 41  1  0  0  0  0
M  END
