 xtb: 6.7.1 (edcfbbe)
          04092505213D

 41 40  0     0  0            999 V2000
    3.9646   -1.6689   -2.5347 C   0  0  0  0  0  0  0  0  0  0  0  0
    4.0732   -0.2267   -2.0850 C   0  0  0  0  0  0  0  0  0  0  0  0
    3.5209   -0.0274   -0.7713 O   0  0  0  0  0  0  0  0  0  0  0  0
    1.9636   -0.1470   -0.4753 P   0  0  0  0  0  0  0  0  0  0  0  0
    0.8353    0.5876   -1.9082 S   0  0  0  0  0  0  0  0  0  0  0  0
    1.8682    0.5135    0.9596 O   0  0  0  0  0  0  0  0  0  0  0  0
    2.2662    1.8818    1.2100 C   0  0  0  0  0  0  0  0  0  0  0  0
    2.0274    2.1623    2.6778 C   0  0  0  0  0  0  0  0  0  0  0  0
    1.6304   -2.1546    0.0375 S   0  0  0  0  0  0  0  0  0  0  0  0
   -0.1644   -2.1980   -0.2063 C   0  0  0  0  0  0  0  0  0  0  0  0
   -1.1035   -1.5357    1.2088 S   0  0  0  0  0  0  0  0  0  0  0  0
   -1.9841    0.2391    0.4716 P   0  0  0  0  0  0  0  0  0  0  0  0
   -1.1529    2.0031    0.7174 S   0  0  0  0  0  0  0  0  0  0  0  0
   -3.4410    0.1998    1.1218 O   0  0  0  0  0  0  0  0  0  0  0  0
   -3.7261    0.8044    2.3913 C   0  0  0  0  0  0  0  0  0  0  0  0
   -3.0641    0.0506    3.5266 C   0  0  0  0  0  0  0  0  0  0  0  0
   -2.2949   -0.2183   -1.0093 O   0  0  0  0  0  0  0  0  0  0  0  0
   -2.8068    0.7117   -1.9908 C   0  0  0  0  0  0  0  0  0  0  0  0
   -2.6000    0.1012   -3.3603 C   0  0  0  0  0  0  0  0  0  0  0  0
    4.3833   -2.3317   -1.7819 H   0  0  0  0  0  0  0  0  0  0  0  0
    2.9195   -1.9316   -2.6914 H   0  0  0  0  0  0  0  0  0  0  0  0
    4.5036   -1.7941   -3.4682 H   0  0  0  0  0  0  0  0  0  0  0  0
    3.5507    0.4357   -2.7828 H   0  0  0  0  0  0  0  0  0  0  0  0
    5.1124    0.0880   -1.9809 H   0  0  0  0  0  0  0  0  0  0  0  0
    3.3207    1.9830    0.9431 H   0  0  0  0  0  0  0  0  0  0  0  0
    1.6632    2.5410    0.5775 H   0  0  0  0  0  0  0  0  0  0  0  0
    2.5598    1.4369    3.2858 H   0  0  0  0  0  0  0  0  0  0  0  0
    2.3781    3.1625    2.9093 H   0  0  0  0  0  0  0  0  0  0  0  0
    0.9642    2.0993    2.8940 H   0  0  0  0  0  0  0  0  0  0  0  0
   -0.4347   -3.2464   -0.2972 H   0  0  0  0  0  0  0  0  0  0  0  0
   -0.4239   -1.6375   -1.1042 H   0  0  0  0  0  0  0  0  0  0  0  0
   -3.3820    1.8442    2.3646 H   0  0  0  0  0  0  0  0  0  0  0  0
   -4.8140    0.7742    2.4628 H   0  0  0  0  0  0  0  0  0  0  0  0
   -1.9801    0.1013    3.4164 H   0  0  0  0  0  0  0  0  0  0  0  0
   -3.3449    0.4989    4.4740 H   0  0  0  0  0  0  0  0  0  0  0  0
   -3.3638   -0.9939    3.5135 H   0  0  0  0  0  0  0  0  0  0  0  0
   -3.8647    0.8771   -1.7738 H   0  0  0  0  0  0  0  0  0  0  0  0
   -2.2643    1.6582   -1.8900 H   0  0  0  0  0  0  0  0  0  0  0  0
   -3.0836   -0.8698   -3.4111 H   0  0  0  0  0  0  0  0  0  0  0  0
   -3.0270    0.7598   -4.1092 H   0  0  0  0  0  0  0  0  0  0  0  0
   -1.5364   -0.0161   -3.5545 H   0  0  0  0  0  0  0  0  0  0  0  0
  1  2  1  0  0  0  0
  2  3  1  0  0  0  0
  3  4  2  0  0  0  0
  4  5  2  0  0  0  0
  4  6  2  0  0  0  0
  6  7  1  0  0  0  0
  7  8  1  0  0  0  0
  4  9  1  0  0  0  0
  9 10  1  0  0  0  0
 10 11  1  0  0  0  0
 11 12  1  0  0  0  0
 12 13  2  0  0  0  0
 12 14  2  0  0  0  0
 14 15  1  0  0  0  0
 15 16  1  0  0  0  0
 12 17  2  0  0  0  0
 17 18  1  0  0  0  0
 18 19  1  0  0  0  0
  1 20  1  0  0  0  0
  1 21  1  0  0  0  0
  1 22  1  0  0  0  0
  2 23  1  0  0  0  0
  2 24  1  0  0  0  0
  7 25  1  0  0  0  0
  7 26  1  0  0  0  0
  8 27  1  0  0  0  0
  8 28  1  0  0  0  0
  8 29  1  0  0  0  0
 10 30  1  0  0  0  0
 10 31  1  0  0  0  0
 15 32  1  0  0  0  0
 15 33  1  0  0  0  0
 16 34  1  0  0  0  0
 16 35  1  0  0  0  0
 16 36  1  0  0  0  0
 18 37  1  0  0  0  0
 18 38  1  0  0  0  0
 19 39  1  0  0  0  0
 19 40  1  0  0  0  0
 19 41  1  0  0  0  0
M  END
