 xtb: 6.7.1 (edcfbbe)
          04092505213D

 41 40  0     0  0            999 V2000
    1.2191   -0.8379   -2.3996 C   0  0  0  0  0  0  0  0  0  0  0  0
    2.3196   -1.4657   -1.5706 C   0  0  0  0  0  0  0  0  0  0  0  0
    2.1778   -1.1727   -0.1734 O   0  0  0  0  0  0  0  0  0  0  0  0
    2.4552    0.2808    0.4252 P   0  0  0  0  0  0  0  0  0  0  0  0
    3.8008    1.3355   -0.5286 S   0  0  0  0  0  0  0  0  0  0  0  0
    2.7740   -0.0570    1.9450 O   0  0  0  0  0  0  0  0  0  0  0  0
    4.1213   -0.2951    2.4024 C   0  0  0  0  0  0  0  0  0  0  0  0
    4.6938   -1.5790    1.8400 C   0  0  0  0  0  0  0  0  0  0  0  0
    0.5637    1.1673    0.7176 S   0  0  0  0  0  0  0  0  0  0  0  0
   -0.2599   -0.1987    1.6027 C   0  0  0  0  0  0  0  0  0  0  0  0
   -1.1368   -1.3645    0.5266 S   0  0  0  0  0  0  0  0  0  0  0  0
   -2.4992   -0.0299   -0.3931 P   0  0  0  0  0  0  0  0  0  0  0  0
   -1.9433    1.0469   -1.9412 S   0  0  0  0  0  0  0  0  0  0  0  0
   -2.9949    0.7674    0.8803 O   0  0  0  0  0  0  0  0  0  0  0  0
   -3.4317    2.1434    0.8461 C   0  0  0  0  0  0  0  0  0  0  0  0
   -2.5894    2.9628    1.8037 C   0  0  0  0  0  0  0  0  0  0  0  0
   -3.7662   -0.9457   -0.6965 O   0  0  0  0  0  0  0  0  0  0  0  0
   -3.9238   -1.6588   -1.9335 C   0  0  0  0  0  0  0  0  0  0  0  0
   -2.9906   -2.8501   -2.0122 C   0  0  0  0  0  0  0  0  0  0  0  0
    1.2580    0.2492   -2.3188 H   0  0  0  0  0  0  0  0  0  0  0  0
    1.3427   -1.1130   -3.4419 H   0  0  0  0  0  0  0  0  0  0  0  0
    0.2427   -1.1727   -2.0573 H   0  0  0  0  0  0  0  0  0  0  0  0
    3.2969   -1.1017   -1.9043 H   0  0  0  0  0  0  0  0  0  0  0  0
    2.2865   -2.5548   -1.6178 H   0  0  0  0  0  0  0  0  0  0  0  0
    4.7390    0.5612    2.1145 H   0  0  0  0  0  0  0  0  0  0  0  0
    4.0229   -0.3346    3.4881 H   0  0  0  0  0  0  0  0  0  0  0  0
    4.8258   -1.4844    0.7630 H   0  0  0  0  0  0  0  0  0  0  0  0
    5.6597   -1.7711    2.2966 H   0  0  0  0  0  0  0  0  0  0  0  0
    4.0255   -2.4120    2.0417 H   0  0  0  0  0  0  0  0  0  0  0  0
   -0.9724    0.2632    2.2808 H   0  0  0  0  0  0  0  0  0  0  0  0
    0.4842   -0.7774    2.1425 H   0  0  0  0  0  0  0  0  0  0  0  0
   -3.3397    2.5214   -0.1774 H   0  0  0  0  0  0  0  0  0  0  0  0
   -4.4826    2.1361    1.1404 H   0  0  0  0  0  0  0  0  0  0  0  0
   -2.9438    3.9884    1.7984 H   0  0  0  0  0  0  0  0  0  0  0  0
   -2.6677    2.5630    2.8109 H   0  0  0  0  0  0  0  0  0  0  0  0
   -1.5460    2.9464    1.4930 H   0  0  0  0  0  0  0  0  0  0  0  0
   -4.9707   -1.9649   -1.9330 H   0  0  0  0  0  0  0  0  0  0  0  0
   -3.7389   -0.9643   -2.7602 H   0  0  0  0  0  0  0  0  0  0  0  0
   -3.1940   -3.4099   -2.9194 H   0  0  0  0  0  0  0  0  0  0  0  0
   -1.9559   -2.5091   -2.0308 H   0  0  0  0  0  0  0  0  0  0  0  0
   -3.1280   -3.4948   -1.1482 H   0  0  0  0  0  0  0  0  0  0  0  0
  1  2  1  0  0  0  0
  2  3  1  0  0  0  0
  3  4  2  0  0  0  0
  4  5  2  0  0  0  0
  4  6  2  0  0  0  0
  6  7  1  0  0  0  0
  7  8  1  0  0  0  0
  4  9  1  0  0  0  0
  9 10  1  0  0  0  0
 10 11  1  0  0  0  0
 11 12  1  0  0  0  0
 12 13  2  0  0  0  0
 12 14  2  0  0  0  0
 14 15  1  0  0  0  0
 15 16  1  0  0  0  0
 12 17  2  0  0  0  0
 17 18  1  0  0  0  0
 18 19  1  0  0  0  0
  1 20  1  0  0  0  0
  1 21  1  0  0  0  0
  1 22  1  0  0  0  0
  2 23  1  0  0  0  0
  2 24  1  0  0  0  0
  7 25  1  0  0  0  0
  7 26  1  0  0  0  0
  8 27  1  0  0  0  0
  8 28  1  0  0  0  0
  8 29  1  0  0  0  0
 10 30  1  0  0  0  0
 10 31  1  0  0  0  0
 15 32  1  0  0  0  0
 15 33  1  0  0  0  0
 16 34  1  0  0  0  0
 16 35  1  0  0  0  0
 16 36  1  0  0  0  0
 18 37  1  0  0  0  0
 18 38  1  0  0  0  0
 19 39  1  0  0  0  0
 19 40  1  0  0  0  0
 19 41  1  0  0  0  0
M  END
