 xtb: 6.7.1 (edcfbbe)
          04092505203D

 41 40  0     0  0            999 V2000
    0.9008   -0.6148    3.5847 C   0  0  0  0  0  0  0  0  0  0  0  0
    2.1249   -0.5175    2.6968 C   0  0  0  0  0  0  0  0  0  0  0  0
    1.7500    0.1633    1.4778 O   0  0  0  0  0  0  0  0  0  0  0  0
    2.4188   -0.1619    0.0777 P   0  0  0  0  0  0  0  0  0  0  0  0
    2.8657   -2.0475   -0.2469 S   0  0  0  0  0  0  0  0  0  0  0  0
    3.6706    0.8189    0.1019 O   0  0  0  0  0  0  0  0  0  0  0  0
    4.7723    0.6863   -0.8135 C   0  0  0  0  0  0  0  0  0  0  0  0
    4.3683    1.0040   -2.2386 C   0  0  0  0  0  0  0  0  0  0  0  0
    1.0193    0.7476   -1.2039 S   0  0  0  0  0  0  0  0  0  0  0  0
   -0.0594   -0.7038   -1.3801 C   0  0  0  0  0  0  0  0  0  0  0  0
   -0.9269   -1.1421    0.1462 S   0  0  0  0  0  0  0  0  0  0  0  0
   -2.5583    0.2322    0.0067 P   0  0  0  0  0  0  0  0  0  0  0  0
   -2.9052    0.9462   -1.7919 S   0  0  0  0  0  0  0  0  0  0  0  0
   -2.3630    1.2497    1.2039 O   0  0  0  0  0  0  0  0  0  0  0  0
   -1.2196    2.0941    1.4139 C   0  0  0  0  0  0  0  0  0  0  0  0
   -1.1551    3.2377    0.4204 C   0  0  0  0  0  0  0  0  0  0  0  0
   -3.7805   -0.5202    0.6680 O   0  0  0  0  0  0  0  0  0  0  0  0
   -4.7092   -1.2916   -0.1131 C   0  0  0  0  0  0  0  0  0  0  0  0
   -4.0919   -2.5792   -0.6222 C   0  0  0  0  0  0  0  0  0  0  0  0
    1.1680   -1.1310    4.5011 H   0  0  0  0  0  0  0  0  0  0  0  0
    0.5324    0.3782    3.8257 H   0  0  0  0  0  0  0  0  0  0  0  0
    0.1147   -1.1698    3.0781 H   0  0  0  0  0  0  0  0  0  0  0  0
    2.5076   -1.5109    2.4386 H   0  0  0  0  0  0  0  0  0  0  0  0
    2.9194    0.0647    3.1685 H   0  0  0  0  0  0  0  0  0  0  0  0
    5.5129    1.3925   -0.4361 H   0  0  0  0  0  0  0  0  0  0  0  0
    5.1593   -0.3352   -0.7414 H   0  0  0  0  0  0  0  0  0  0  0  0
    3.8859    1.9771   -2.2872 H   0  0  0  0  0  0  0  0  0  0  0  0
    5.2503    1.0059   -2.8709 H   0  0  0  0  0  0  0  0  0  0  0  0
    3.6732    0.2497   -2.6056 H   0  0  0  0  0  0  0  0  0  0  0  0
    0.5436   -1.5675   -1.6572 H   0  0  0  0  0  0  0  0  0  0  0  0
   -0.7869   -0.4521   -2.1534 H   0  0  0  0  0  0  0  0  0  0  0  0
   -1.3610    2.4647    2.4313 H   0  0  0  0  0  0  0  0  0  0  0  0
   -0.3086    1.4889    1.3720 H   0  0  0  0  0  0  0  0  0  0  0  0
   -0.3375    3.8986    0.6899 H   0  0  0  0  0  0  0  0  0  0  0  0
   -0.9830    2.8620   -0.5867 H   0  0  0  0  0  0  0  0  0  0  0  0
   -2.0885    3.7948    0.4296 H   0  0  0  0  0  0  0  0  0  0  0  0
   -5.5326   -1.4855    0.5756 H   0  0  0  0  0  0  0  0  0  0  0  0
   -5.0610   -0.6765   -0.9480 H   0  0  0  0  0  0  0  0  0  0  0  0
   -4.8605   -3.1857   -1.0902 H   0  0  0  0  0  0  0  0  0  0  0  0
   -3.3207   -2.3580   -1.3588 H   0  0  0  0  0  0  0  0  0  0  0  0
   -3.6444   -3.1334    0.1990 H   0  0  0  0  0  0  0  0  0  0  0  0
  1  2  1  0  0  0  0
  2  3  1  0  0  0  0
  3  4  2  0  0  0  0
  4  5  2  0  0  0  0
  4  6  2  0  0  0  0
  6  7  1  0  0  0  0
  7  8  1  0  0  0  0
  4  9  1  0  0  0  0
  9 10  1  0  0  0  0
 10 11  1  0  0  0  0
 11 12  1  0  0  0  0
 12 13  2  0  0  0  0
 12 14  2  0  0  0  0
 14 15  1  0  0  0  0
 15 16  1  0  0  0  0
 12 17  2  0  0  0  0
 17 18  1  0  0  0  0
 18 19  1  0  0  0  0
  1 20  1  0  0  0  0
  1 21  1  0  0  0  0
  1 22  1  0  0  0  0
  2 23  1  0  0  0  0
  2 24  1  0  0  0  0
  7 25  1  0  0  0  0
  7 26  1  0  0  0  0
  8 27  1  0  0  0  0
  8 28  1  0  0  0  0
  8 29  1  0  0  0  0
 10 30  1  0  0  0  0
 10 31  1  0  0  0  0
 15 32  1  0  0  0  0
 15 33  1  0  0  0  0
 16 34  1  0  0  0  0
 16 35  1  0  0  0  0
 16 36  1  0  0  0  0
 18 37  1  0  0  0  0
 18 38  1  0  0  0  0
 19 39  1  0  0  0  0
 19 40  1  0  0  0  0
 19 41  1  0  0  0  0
M  END
