 xtb: 6.7.1 (edcfbbe)
          04092505213D

 41 40  0     0  0            999 V2000
    1.5875   -2.6683    1.4538 C   0  0  0  0  0  0  0  0  0  0  0  0
    1.5868   -1.2133    1.8774 C   0  0  0  0  0  0  0  0  0  0  0  0
    2.6534   -0.4638    1.2730 O   0  0  0  0  0  0  0  0  0  0  0  0
    2.7295   -0.0313   -0.2594 P   0  0  0  0  0  0  0  0  0  0  0  0
    3.0456   -1.4164   -1.6010 S   0  0  0  0  0  0  0  0  0  0  0  0
    3.9277    0.9860   -0.2423 O   0  0  0  0  0  0  0  0  0  0  0  0
    3.9834    2.1543    0.6147 C   0  0  0  0  0  0  0  0  0  0  0  0
    4.8126    1.8732    1.8511 C   0  0  0  0  0  0  0  0  0  0  0  0
    0.9866    1.1909   -0.5493 S   0  0  0  0  0  0  0  0  0  0  0  0
    0.1546    0.1718   -1.7868 C   0  0  0  0  0  0  0  0  0  0  0  0
   -0.7678   -1.2036   -1.0536 S   0  0  0  0  0  0  0  0  0  0  0  0
   -2.2651   -0.0293   -0.1165 P   0  0  0  0  0  0  0  0  0  0  0  0
   -2.7990    1.5512   -1.1580 S   0  0  0  0  0  0  0  0  0  0  0  0
   -1.6154    0.2045    1.3078 O   0  0  0  0  0  0  0  0  0  0  0  0
   -2.3688    0.4615    2.5171 C   0  0  0  0  0  0  0  0  0  0  0  0
   -3.2776    1.6647    2.3863 C   0  0  0  0  0  0  0  0  0  0  0  0
   -3.4108   -1.0749    0.2224 O   0  0  0  0  0  0  0  0  0  0  0  0
   -4.3707   -1.5102   -0.7627 C   0  0  0  0  0  0  0  0  0  0  0  0
   -5.6580   -0.7187   -0.6378 C   0  0  0  0  0  0  0  0  0  0  0  0
    1.3642   -2.7584    0.3923 H   0  0  0  0  0  0  0  0  0  0  0  0
    2.5613   -3.1130    1.6415 H   0  0  0  0  0  0  0  0  0  0  0  0
    0.8306   -3.2045    2.0172 H   0  0  0  0  0  0  0  0  0  0  0  0
    1.7772   -1.1148    2.9480 H   0  0  0  0  0  0  0  0  0  0  0  0
    0.6335   -0.7352    1.6309 H   0  0  0  0  0  0  0  0  0  0  0  0
    4.4435    2.9251   -0.0059 H   0  0  0  0  0  0  0  0  0  0  0  0
    2.9639    2.4532    0.8740 H   0  0  0  0  0  0  0  0  0  0  0  0
    4.8881    2.7808    2.4419 H   0  0  0  0  0  0  0  0  0  0  0  0
    4.3499    1.0917    2.4473 H   0  0  0  0  0  0  0  0  0  0  0  0
    5.8083    1.5483    1.5624 H   0  0  0  0  0  0  0  0  0  0  0  0
    0.8940   -0.2687   -2.4562 H   0  0  0  0  0  0  0  0  0  0  0  0
   -0.5365    0.8267   -2.3176 H   0  0  0  0  0  0  0  0  0  0  0  0
   -2.9395   -0.4377    2.7573 H   0  0  0  0  0  0  0  0  0  0  0  0
   -1.5941    0.6256    3.2679 H   0  0  0  0  0  0  0  0  0  0  0  0
   -2.7065    2.5402    2.0854 H   0  0  0  0  0  0  0  0  0  0  0  0
   -4.0414    1.4775    1.6327 H   0  0  0  0  0  0  0  0  0  0  0  0
   -3.7596    1.8591    3.3393 H   0  0  0  0  0  0  0  0  0  0  0  0
   -3.9409   -1.4010   -1.7618 H   0  0  0  0  0  0  0  0  0  0  0  0
   -4.5287   -2.5685   -0.5478 H   0  0  0  0  0  0  0  0  0  0  0  0
   -6.3865   -1.1087   -1.3412 H   0  0  0  0  0  0  0  0  0  0  0  0
   -6.0532   -0.8011    0.3708 H   0  0  0  0  0  0  0  0  0  0  0  0
   -5.4762    0.3300   -0.8638 H   0  0  0  0  0  0  0  0  0  0  0  0
  1  2  1  0  0  0  0
  2  3  1  0  0  0  0
  3  4  2  0  0  0  0
  4  5  2  0  0  0  0
  4  6  2  0  0  0  0
  6  7  1  0  0  0  0
  7  8  1  0  0  0  0
  4  9  1  0  0  0  0
  9 10  1  0  0  0  0
 10 11  1  0  0  0  0
 11 12  1  0  0  0  0
 12 13  2  0  0  0  0
 12 14  2  0  0  0  0
 14 15  1  0  0  0  0
 15 16  1  0  0  0  0
 12 17  2  0  0  0  0
 17 18  1  0  0  0  0
 18 19  1  0  0  0  0
  1 20  1  0  0  0  0
  1 21  1  0  0  0  0
  1 22  1  0  0  0  0
  2 23  1  0  0  0  0
  2 24  1  0  0  0  0
  7 25  1  0  0  0  0
  7 26  1  0  0  0  0
  8 27  1  0  0  0  0
  8 28  1  0  0  0  0
  8 29  1  0  0  0  0
 10 30  1  0  0  0  0
 10 31  1  0  0  0  0
 15 32  1  0  0  0  0
 15 33  1  0  0  0  0
 16 34  1  0  0  0  0
 16 35  1  0  0  0  0
 16 36  1  0  0  0  0
 18 37  1  0  0  0  0
 18 38  1  0  0  0  0
 19 39  1  0  0  0  0
 19 40  1  0  0  0  0
 19 41  1  0  0  0  0
M  END
