 xtb: 6.7.1 (edcfbbe)
          04092507313D

 38 37  0     0  0            999 V2000
    4.2234   -1.8882    1.1938 C   0  0  0  0  0  0  0  0  0  0  0  0
    2.7430   -1.8582    0.8675 C   0  0  0  0  0  0  0  0  0  0  0  0
    2.5371   -0.9294   -0.2145 O   0  0  0  0  0  0  0  0  0  0  0  0
    1.4714   -1.0610   -0.9709 C   0  0  0  0  0  0  0  0  0  0  0  0
    0.6125   -1.9075   -0.8164 O   0  0  0  0  0  0  0  0  0  0  0  0
    1.4223   -0.0178   -2.0686 C   0  0  0  0  0  0  0  0  0  0  0  0
    0.2343    0.9231   -1.8450 C   0  0  0  0  0  0  0  0  0  0  0  0
    0.1677    1.6309   -2.6760 H   0  0  0  0  0  0  0  0  0  0  0  0
    0.3504    1.6993   -0.5483 C   0  0  0  0  0  0  0  0  0  0  0  0
   -0.5916    1.8338    0.2141 O   0  0  0  0  0  0  0  0  0  0  0  0
    1.5433    2.1711   -0.3501 O   0  0  0  0  0  0  0  0  0  0  0  0
    1.8357    2.8358    0.9001 C   0  0  0  0  0  0  0  0  0  0  0  0
    3.3169    2.6646    1.1726 C   0  0  0  0  0  0  0  0  0  0  0  0
   -1.3741    0.0536   -1.8419 S   0  0  0  0  0  0  0  0  0  0  0  0
   -1.7985   -0.3300    0.2081 P   0  0  0  0  0  0  0  0  0  0  0  0
   -0.5630   -0.6111    1.7189 S   0  0  0  0  0  0  0  0  0  0  0  0
   -3.0424    0.6094    0.5261 O   0  0  0  0  0  0  0  0  0  0  0  0
   -3.0801    1.6268    1.5259 C   0  0  0  0  0  0  0  0  0  0  0  0
   -2.7197   -1.6249   -0.0170 O   0  0  0  0  0  0  0  0  0  0  0  0
   -2.2013   -2.9244   -0.2948 C   0  0  0  0  0  0  0  0  0  0  0  0
    4.7919   -2.2069    0.3251 H   0  0  0  0  0  0  0  0  0  0  0  0
    4.5618   -0.9014    1.4943 H   0  0  0  0  0  0  0  0  0  0  0  0
    4.3920   -2.5847    2.0081 H   0  0  0  0  0  0  0  0  0  0  0  0
    2.1415   -1.5214    1.7183 H   0  0  0  0  0  0  0  0  0  0  0  0
    2.3719   -2.8389    0.5540 H   0  0  0  0  0  0  0  0  0  0  0  0
    1.2830   -0.5280   -3.0215 H   0  0  0  0  0  0  0  0  0  0  0  0
    2.3487    0.5547   -2.0650 H   0  0  0  0  0  0  0  0  0  0  0  0
    1.5614    3.8880    0.7897 H   0  0  0  0  0  0  0  0  0  0  0  0
    1.2193    2.3849    1.6838 H   0  0  0  0  0  0  0  0  0  0  0  0
    3.5597    1.6077    1.2361 H   0  0  0  0  0  0  0  0  0  0  0  0
    3.8980    3.1134    0.3732 H   0  0  0  0  0  0  0  0  0  0  0  0
    3.5647    3.1453    2.1128 H   0  0  0  0  0  0  0  0  0  0  0  0
   -4.0884    1.6095    1.9334 H   0  0  0  0  0  0  0  0  0  0  0  0
   -2.8602    2.5897    1.0678 H   0  0  0  0  0  0  0  0  0  0  0  0
   -2.3483    1.4180    2.3087 H   0  0  0  0  0  0  0  0  0  0  0  0
   -1.4146   -3.1766    0.4182 H   0  0  0  0  0  0  0  0  0  0  0  0
   -1.7925   -2.9627   -1.3043 H   0  0  0  0  0  0  0  0  0  0  0  0
   -3.0451   -3.6020   -0.1916 H   0  0  0  0  0  0  0  0  0  0  0  0
  1  2  1  0  0  0  0
  2  3  1  0  0  0  0
  3  4  4  0  0  0  0
  4  5  2  0  0  0  0
  4  6  1  0  0  0  0
  6  7  1  0  0  0  0
  7  8  1  0  0  0  0
  7  9  1  0  0  0  0
  9 10  2  0  0  0  0
  9 11  4  0  0  0  0
 11 12  1  0  0  0  0
 12 13  1  0  0  0  0
  7 14  1  0  0  0  0
 14 15  1  0  0  0  0
 15 16  2  0  0  0  0
 15 17  1  0  0  0  0
 17 18  1  0  0  0  0
 15 19  1  0  0  0  0
 19 20  1  0  0  0  0
  1 21  1  0  0  0  0
  1 22  1  0  0  0  0
  1 23  1  0  0  0  0
  2 24  1  0  0  0  0
  2 25  1  0  0  0  0
  6 26  1  0  0  0  0
  6 27  1  0  0  0  0
 12 28  1  0  0  0  0
 12 29  1  0  0  0  0
 13 30  1  0  0  0  0
 13 31  1  0  0  0  0
 13 32  1  0  0  0  0
 18 33  1  0  0  0  0
 18 34  1  0  0  0  0
 18 35  1  0  0  0  0
 20 36  1  0  0  0  0
 20 37  1  0  0  0  0
 20 38  1  0  0  0  0
M  END
