 xtb: 6.7.1 (edcfbbe)
          04092505213D

 41 40  0     0  0            999 V2000
    1.5586   -3.0842    0.3104 C   0  0  0  0  0  0  0  0  0  0  0  0
    1.8725   -1.9865    1.3068 C   0  0  0  0  0  0  0  0  0  0  0  0
    2.9451   -1.1353    0.8700 O   0  0  0  0  0  0  0  0  0  0  0  0
    2.8521   -0.0573   -0.2962 P   0  0  0  0  0  0  0  0  0  0  0  0
    2.8168   -0.7432   -2.1317 S   0  0  0  0  0  0  0  0  0  0  0  0
    4.1636    0.7795   -0.0739 O   0  0  0  0  0  0  0  0  0  0  0  0
    4.4094    1.7630    0.9626 C   0  0  0  0  0  0  0  0  0  0  0  0
    4.1128    1.2549    2.3566 C   0  0  0  0  0  0  0  0  0  0  0  0
    1.2319    1.2312    0.2424 S   0  0  0  0  0  0  0  0  0  0  0  0
    0.0741    0.7828   -1.0711 C   0  0  0  0  0  0  0  0  0  0  0  0
   -0.9821   -0.6231   -0.6473 S   0  0  0  0  0  0  0  0  0  0  0  0
   -2.8425    0.3772   -0.2944 P   0  0  0  0  0  0  0  0  0  0  0  0
   -2.8280    2.3031   -0.6559 S   0  0  0  0  0  0  0  0  0  0  0  0
   -3.3224   -0.0371    1.1656 O   0  0  0  0  0  0  0  0  0  0  0  0
   -2.9616    0.7020    2.3448 C   0  0  0  0  0  0  0  0  0  0  0  0
   -1.5180    0.4709    2.7422 C   0  0  0  0  0  0  0  0  0  0  0  0
   -3.8849   -0.3792   -1.2046 O   0  0  0  0  0  0  0  0  0  0  0  0
   -4.5002   -1.6536   -0.8940 C   0  0  0  0  0  0  0  0  0  0  0  0
   -3.4852   -2.7646   -0.7323 C   0  0  0  0  0  0  0  0  0  0  0  0
    2.4613   -3.6369    0.0633 H   0  0  0  0  0  0  0  0  0  0  0  0
    0.8277   -3.7609    0.7405 H   0  0  0  0  0  0  0  0  0  0  0  0
    1.1491   -2.6612   -0.6051 H   0  0  0  0  0  0  0  0  0  0  0  0
    2.2394   -2.3993    2.2482 H   0  0  0  0  0  0  0  0  0  0  0  0
    0.9877   -1.3699    1.4921 H   0  0  0  0  0  0  0  0  0  0  0  0
    5.4681    1.9940    0.8349 H   0  0  0  0  0  0  0  0  0  0  0  0
    3.8079    2.6465    0.7345 H   0  0  0  0  0  0  0  0  0  0  0  0
    4.4331    2.0015    3.0769 H   0  0  0  0  0  0  0  0  0  0  0  0
    3.0448    1.0853    2.4772 H   0  0  0  0  0  0  0  0  0  0  0  0
    4.6457    0.3258    2.5400 H   0  0  0  0  0  0  0  0  0  0  0  0
    0.6501    0.5068   -1.9565 H   0  0  0  0  0  0  0  0  0  0  0  0
   -0.5587    1.6536   -1.2562 H   0  0  0  0  0  0  0  0  0  0  0  0
   -3.1486    1.7648    2.1616 H   0  0  0  0  0  0  0  0  0  0  0  0
   -3.6505    0.3304    3.1050 H   0  0  0  0  0  0  0  0  0  0  0  0
   -0.8492    0.9214    2.0099 H   0  0  0  0  0  0  0  0  0  0  0  0
   -1.3350    0.9336    3.7065 H   0  0  0  0  0  0  0  0  0  0  0  0
   -1.3129   -0.5945    2.8098 H   0  0  0  0  0  0  0  0  0  0  0  0
   -5.0941   -1.5313    0.0138 H   0  0  0  0  0  0  0  0  0  0  0  0
   -5.1565   -1.8267   -1.7481 H   0  0  0  0  0  0  0  0  0  0  0  0
   -4.0081   -3.7014   -0.5671 H   0  0  0  0  0  0  0  0  0  0  0  0
   -2.8681   -2.8514   -1.6230 H   0  0  0  0  0  0  0  0  0  0  0  0
   -2.8402   -2.5622    0.1209 H   0  0  0  0  0  0  0  0  0  0  0  0
  1  2  1  0  0  0  0
  2  3  1  0  0  0  0
  3  4  2  0  0  0  0
  4  5  2  0  0  0  0
  4  6  2  0  0  0  0
  6  7  1  0  0  0  0
  7  8  1  0  0  0  0
  4  9  1  0  0  0  0
  9 10  1  0  0  0  0
 10 11  1  0  0  0  0
 11 12  1  0  0  0  0
 12 13  2  0  0  0  0
 12 14  2  0  0  0  0
 14 15  1  0  0  0  0
 15 16  1  0  0  0  0
 12 17  2  0  0  0  0
 17 18  1  0  0  0  0
 18 19  1  0  0  0  0
  1 20  1  0  0  0  0
  1 21  1  0  0  0  0
  1 22  1  0  0  0  0
  2 23  1  0  0  0  0
  2 24  1  0  0  0  0
  7 25  1  0  0  0  0
  7 26  1  0  0  0  0
  8 27  1  0  0  0  0
  8 28  1  0  0  0  0
  8 29  1  0  0  0  0
 10 30  1  0  0  0  0
 10 31  1  0  0  0  0
 15 32  1  0  0  0  0
 15 33  1  0  0  0  0
 16 34  1  0  0  0  0
 16 35  1  0  0  0  0
 16 36  1  0  0  0  0
 18 37  1  0  0  0  0
 18 38  1  0  0  0  0
 19 39  1  0  0  0  0
 19 40  1  0  0  0  0
 19 41  1  0  0  0  0
M  END
