 xtb: 6.7.1 (edcfbbe)
          04092505213D

 41 40  0     0  0            999 V2000
    4.6501    1.0560    0.6406 C   0  0  0  0  0  0  0  0  0  0  0  0
    3.5986    1.1395   -0.4469 C   0  0  0  0  0  0  0  0  0  0  0  0
    2.7710   -0.0400   -0.4635 O   0  0  0  0  0  0  0  0  0  0  0  0
    1.6610   -0.2977    0.6595 P   0  0  0  0  0  0  0  0  0  0  0  0
    0.9600    1.2996    1.5339 S   0  0  0  0  0  0  0  0  0  0  0  0
    2.2826   -1.2611    1.7540 O   0  0  0  0  0  0  0  0  0  0  0  0
    3.0144   -2.4688    1.4271 C   0  0  0  0  0  0  0  0  0  0  0  0
    4.0353   -2.7048    2.5214 C   0  0  0  0  0  0  0  0  0  0  0  0
    0.4401   -1.6432   -0.4514 S   0  0  0  0  0  0  0  0  0  0  0  0
    0.2479   -0.6880   -1.9803 C   0  0  0  0  0  0  0  0  0  0  0  0
   -0.4087    0.9744   -1.7032 S   0  0  0  0  0  0  0  0  0  0  0  0
   -2.3184    0.3628   -1.0127 P   0  0  0  0  0  0  0  0  0  0  0  0
   -3.1133   -1.1590   -1.9436 S   0  0  0  0  0  0  0  0  0  0  0  0
   -3.1875    1.6701   -1.1832 O   0  0  0  0  0  0  0  0  0  0  0  0
   -2.7480    3.0300   -0.9534 C   0  0  0  0  0  0  0  0  0  0  0  0
   -2.3753    3.2852    0.4912 C   0  0  0  0  0  0  0  0  0  0  0  0
   -2.1672    0.1586    0.5638 O   0  0  0  0  0  0  0  0  0  0  0  0
   -2.5300   -1.0442    1.2717 C   0  0  0  0  0  0  0  0  0  0  0  0
   -1.6743   -1.1545    2.5166 C   0  0  0  0  0  0  0  0  0  0  0  0
    5.2676    0.1716    0.5051 H   0  0  0  0  0  0  0  0  0  0  0  0
    5.2778    1.9407    0.6036 H   0  0  0  0  0  0  0  0  0  0  0  0
    4.1649    1.0076    1.6154 H   0  0  0  0  0  0  0  0  0  0  0  0
    4.0429    1.1690   -1.4427 H   0  0  0  0  0  0  0  0  0  0  0  0
    2.9572    2.0137   -0.2989 H   0  0  0  0  0  0  0  0  0  0  0  0
    2.2917   -3.2859    1.3713 H   0  0  0  0  0  0  0  0  0  0  0  0
    3.4911   -2.3420    0.4519 H   0  0  0  0  0  0  0  0  0  0  0  0
    4.5671   -3.6289    2.3186 H   0  0  0  0  0  0  0  0  0  0  0  0
    4.7446   -1.8827    2.5621 H   0  0  0  0  0  0  0  0  0  0  0  0
    3.5356   -2.7806    3.4827 H   0  0  0  0  0  0  0  0  0  0  0  0
   -0.4477   -1.2551   -2.6007 H   0  0  0  0  0  0  0  0  0  0  0  0
    1.2129   -0.5708   -2.4664 H   0  0  0  0  0  0  0  0  0  0  0  0
   -1.9039    3.2356   -1.6174 H   0  0  0  0  0  0  0  0  0  0  0  0
   -3.6114    3.6237   -1.2585 H   0  0  0  0  0  0  0  0  0  0  0  0
   -2.1429    4.3381    0.6169 H   0  0  0  0  0  0  0  0  0  0  0  0
   -3.2007    3.0192    1.1462 H   0  0  0  0  0  0  0  0  0  0  0  0
   -1.5019    2.6992    0.7735 H   0  0  0  0  0  0  0  0  0  0  0  0
   -3.5883   -0.9618    1.5313 H   0  0  0  0  0  0  0  0  0  0  0  0
   -2.3942   -1.9060    0.6101 H   0  0  0  0  0  0  0  0  0  0  0  0
   -2.0023   -2.0109    3.0962 H   0  0  0  0  0  0  0  0  0  0  0  0
   -0.6254   -1.2843    2.2535 H   0  0  0  0  0  0  0  0  0  0  0  0
   -1.7666   -0.2515    3.1137 H   0  0  0  0  0  0  0  0  0  0  0  0
  1  2  1  0  0  0  0
  2  3  1  0  0  0  0
  3  4  1  0  0  0  0
  4  5  2  0  0  0  0
  4  6  2  0  0  0  0
  6  7  1  0  0  0  0
  7  8  1  0  0  0  0
  4  9  1  0  0  0  0
  9 10  1  0  0  0  0
 10 11  1  0  0  0  0
 11 12  1  0  0  0  0
 12 13  2  0  0  0  0
 12 14  2  0  0  0  0
 14 15  1  0  0  0  0
 15 16  1  0  0  0  0
 12 17  2  0  0  0  0
 17 18  1  0  0  0  0
 18 19  1  0  0  0  0
  1 20  1  0  0  0  0
  1 21  1  0  0  0  0
  1 22  1  0  0  0  0
  2 23  1  0  0  0  0
  2 24  1  0  0  0  0
  7 25  1  0  0  0  0
  7 26  1  0  0  0  0
  8 27  1  0  0  0  0
  8 28  1  0  0  0  0
  8 29  1  0  0  0  0
 10 30  1  0  0  0  0
 10 31  1  0  0  0  0
 15 32  1  0  0  0  0
 15 33  1  0  0  0  0
 16 34  1  0  0  0  0
 16 35  1  0  0  0  0
 16 36  1  0  0  0  0
 18 37  1  0  0  0  0
 18 38  1  0  0  0  0
 19 39  1  0  0  0  0
 19 40  1  0  0  0  0
 19 41  1  0  0  0  0
M  END
