 xtb: 6.7.1 (edcfbbe)
          04092505203D

 41 40  0     0  0            999 V2000
    5.2072   -0.5523   -2.7179 C   0  0  0  0  0  0  0  0  0  0  0  0
    3.8503   -0.9552   -2.1778 C   0  0  0  0  0  0  0  0  0  0  0  0
    3.5449   -0.0961   -1.0593 O   0  0  0  0  0  0  0  0  0  0  0  0
    2.0578    0.0653   -0.5239 P   0  0  0  0  0  0  0  0  0  0  0  0
    0.7593    0.5786   -1.8960 S   0  0  0  0  0  0  0  0  0  0  0  0
    2.2111    1.1677    0.5832 O   0  0  0  0  0  0  0  0  0  0  0  0
    3.2281    1.1824    1.6206 C   0  0  0  0  0  0  0  0  0  0  0  0
    2.6859    0.6227    2.9208 C   0  0  0  0  0  0  0  0  0  0  0  0
    1.7651   -1.8215    0.4134 S   0  0  0  0  0  0  0  0  0  0  0  0
    0.1532   -1.5706    1.2029 C   0  0  0  0  0  0  0  0  0  0  0  0
   -1.2603   -1.5789    0.0593 S   0  0  0  0  0  0  0  0  0  0  0  0
   -1.9693    0.4175    0.3246 P   0  0  0  0  0  0  0  0  0  0  0  0
   -0.9128    1.5480    1.5185 S   0  0  0  0  0  0  0  0  0  0  0  0
   -3.4651    0.1793    0.8267 O   0  0  0  0  0  0  0  0  0  0  0  0
   -3.7343   -0.3511    2.1392 C   0  0  0  0  0  0  0  0  0  0  0  0
   -5.2130   -0.1751    2.4195 C   0  0  0  0  0  0  0  0  0  0  0  0
   -2.2126    1.0515   -1.0874 O   0  0  0  0  0  0  0  0  0  0  0  0
   -2.8470    0.3619   -2.1934 C   0  0  0  0  0  0  0  0  0  0  0  0
   -4.3197    0.7048   -2.2665 C   0  0  0  0  0  0  0  0  0  0  0  0
    5.1840    0.4817   -3.0507 H   0  0  0  0  0  0  0  0  0  0  0  0
    5.9621   -0.6571   -1.9442 H   0  0  0  0  0  0  0  0  0  0  0  0
    5.4594   -1.1932   -3.5563 H   0  0  0  0  0  0  0  0  0  0  0  0
    3.8512   -1.9881   -1.8201 H   0  0  0  0  0  0  0  0  0  0  0  0
    3.0650   -0.8357   -2.9316 H   0  0  0  0  0  0  0  0  0  0  0  0
    4.0995    0.6272    1.2704 H   0  0  0  0  0  0  0  0  0  0  0  0
    3.4761    2.2400    1.7211 H   0  0  0  0  0  0  0  0  0  0  0  0
    2.5474   -0.4534    2.8538 H   0  0  0  0  0  0  0  0  0  0  0  0
    3.3911    0.8381    3.7171 H   0  0  0  0  0  0  0  0  0  0  0  0
    1.7328    1.0941    3.1524 H   0  0  0  0  0  0  0  0  0  0  0  0
    0.1515   -0.6182    1.7415 H   0  0  0  0  0  0  0  0  0  0  0  0
    0.0317   -2.4142    1.8774 H   0  0  0  0  0  0  0  0  0  0  0  0
   -3.4495   -1.4073    2.1454 H   0  0  0  0  0  0  0  0  0  0  0  0
   -3.1205    0.1928    2.8650 H   0  0  0  0  0  0  0  0  0  0  0  0
   -5.4356   -0.5629    3.4080 H   0  0  0  0  0  0  0  0  0  0  0  0
   -5.4767    0.8780    2.3792 H   0  0  0  0  0  0  0  0  0  0  0  0
   -5.7995   -0.7141    1.6812 H   0  0  0  0  0  0  0  0  0  0  0  0
   -2.3001    0.7099   -3.0723 H   0  0  0  0  0  0  0  0  0  0  0  0
   -2.6917   -0.7144   -2.0761 H   0  0  0  0  0  0  0  0  0  0  0  0
   -4.4465    1.7807   -2.3500 H   0  0  0  0  0  0  0  0  0  0  0  0
   -4.7504    0.2228   -3.1384 H   0  0  0  0  0  0  0  0  0  0  0  0
   -4.8311    0.3591   -1.3721 H   0  0  0  0  0  0  0  0  0  0  0  0
  1  2  1  0  0  0  0
  2  3  1  0  0  0  0
  3  4  2  0  0  0  0
  4  5  2  0  0  0  0
  4  6  2  0  0  0  0
  6  7  1  0  0  0  0
  7  8  1  0  0  0  0
  4  9  1  0  0  0  0
  9 10  1  0  0  0  0
 10 11  1  0  0  0  0
 11 12  1  0  0  0  0
 12 13  2  0  0  0  0
 12 14  2  0  0  0  0
 14 15  1  0  0  0  0
 15 16  1  0  0  0  0
 12 17  2  0  0  0  0
 17 18  1  0  0  0  0
 18 19  1  0  0  0  0
  1 20  1  0  0  0  0
  1 21  1  0  0  0  0
  1 22  1  0  0  0  0
  2 23  1  0  0  0  0
  2 24  1  0  0  0  0
  7 25  1  0  0  0  0
  7 26  1  0  0  0  0
  8 27  1  0  0  0  0
  8 28  1  0  0  0  0
  8 29  1  0  0  0  0
 10 30  1  0  0  0  0
 10 31  1  0  0  0  0
 15 32  1  0  0  0  0
 15 33  1  0  0  0  0
 16 34  1  0  0  0  0
 16 35  1  0  0  0  0
 16 36  1  0  0  0  0
 18 37  1  0  0  0  0
 18 38  1  0  0  0  0
 19 39  1  0  0  0  0
 19 40  1  0  0  0  0
 19 41  1  0  0  0  0
M  END
