 xtb: 6.7.1 (edcfbbe)
          04092505203D

 41 40  0     0  0            999 V2000
    5.8019   -0.0067    0.1355 C   0  0  0  0  0  0  0  0  0  0  0  0
    4.4988   -0.6876   -0.2328 C   0  0  0  0  0  0  0  0  0  0  0  0
    3.4178    0.0569    0.3622 O   0  0  0  0  0  0  0  0  0  0  0  0
    1.9577    0.0887   -0.2684 P   0  0  0  0  0  0  0  0  0  0  0  0
    1.9498    0.2330   -2.2296 S   0  0  0  0  0  0  0  0  0  0  0  0
    1.2690    1.1840    0.6371 O   0  0  0  0  0  0  0  0  0  0  0  0
    1.8068    2.4982    0.9002 C   0  0  0  0  0  0  0  0  0  0  0  0
    2.0410    3.2902   -0.3683 C   0  0  0  0  0  0  0  0  0  0  0  0
    1.0732   -1.6746    0.4697 S   0  0  0  0  0  0  0  0  0  0  0  0
   -0.1226   -2.0361   -0.8590 C   0  0  0  0  0  0  0  0  0  0  0  0
   -1.8294   -2.0468   -0.2800 S   0  0  0  0  0  0  0  0  0  0  0  0
   -2.0223    0.0317    0.1499 P   0  0  0  0  0  0  0  0  0  0  0  0
   -1.3448    1.2723   -1.2023 S   0  0  0  0  0  0  0  0  0  0  0  0
   -1.3029    0.2902    1.5276 O   0  0  0  0  0  0  0  0  0  0  0  0
   -1.5957   -0.4518    2.7386 C   0  0  0  0  0  0  0  0  0  0  0  0
   -2.5064    0.3499    3.6453 C   0  0  0  0  0  0  0  0  0  0  0  0
   -3.5549    0.1463    0.5521 O   0  0  0  0  0  0  0  0  0  0  0  0
   -4.6566   -0.3814   -0.2113 C   0  0  0  0  0  0  0  0  0  0  0  0
   -4.6644    0.1027   -1.6457 C   0  0  0  0  0  0  0  0  0  0  0  0
    6.6277   -0.5772   -0.2764 H   0  0  0  0  0  0  0  0  0  0  0  0
    5.8275    1.0011   -0.2698 H   0  0  0  0  0  0  0  0  0  0  0  0
    5.9024    0.0439    1.2158 H   0  0  0  0  0  0  0  0  0  0  0  0
    4.4561   -1.7068    0.1587 H   0  0  0  0  0  0  0  0  0  0  0  0
    4.3504   -0.7108   -1.3179 H   0  0  0  0  0  0  0  0  0  0  0  0
    1.0386    2.9614    1.5221 H   0  0  0  0  0  0  0  0  0  0  0  0
    2.7318    2.3784    1.4688 H   0  0  0  0  0  0  0  0  0  0  0  0
    2.3476    4.3002   -0.1157 H   0  0  0  0  0  0  0  0  0  0  0  0
    2.8185    2.8190   -0.9689 H   0  0  0  0  0  0  0  0  0  0  0  0
    1.1272    3.3267   -0.9595 H   0  0  0  0  0  0  0  0  0  0  0  0
    0.0764   -3.0386   -1.2289 H   0  0  0  0  0  0  0  0  0  0  0  0
    0.0033   -1.2913   -1.6508 H   0  0  0  0  0  0  0  0  0  0  0  0
   -2.0473   -1.4109    2.4694 H   0  0  0  0  0  0  0  0  0  0  0  0
   -0.6198   -0.6243    3.1974 H   0  0  0  0  0  0  0  0  0  0  0  0
   -3.4596    0.5304    3.1556 H   0  0  0  0  0  0  0  0  0  0  0  0
   -2.6719   -0.2068    4.5623 H   0  0  0  0  0  0  0  0  0  0  0  0
   -2.0495    1.3066    3.8829 H   0  0  0  0  0  0  0  0  0  0  0  0
   -4.6051   -1.4729   -0.1720 H   0  0  0  0  0  0  0  0  0  0  0  0
   -5.5358   -0.0300    0.3316 H   0  0  0  0  0  0  0  0  0  0  0  0
   -3.7859   -0.2671   -2.1729 H   0  0  0  0  0  0  0  0  0  0  0  0
   -5.5561   -0.2623   -2.1449 H   0  0  0  0  0  0  0  0  0  0  0  0
   -4.6499    1.1896   -1.6804 H   0  0  0  0  0  0  0  0  0  0  0  0
  1  2  1  0  0  0  0
  2  3  1  0  0  0  0
  3  4  2  0  0  0  0
  4  5  2  0  0  0  0
  4  6  2  0  0  0  0
  6  7  1  0  0  0  0
  7  8  1  0  0  0  0
  4  9  1  0  0  0  0
  9 10  1  0  0  0  0
 10 11  1  0  0  0  0
 11 12  1  0  0  0  0
 12 13  2  0  0  0  0
 12 14  2  0  0  0  0
 14 15  1  0  0  0  0
 15 16  1  0  0  0  0
 12 17  2  0  0  0  0
 17 18  1  0  0  0  0
 18 19  1  0  0  0  0
  1 20  1  0  0  0  0
  1 21  1  0  0  0  0
  1 22  1  0  0  0  0
  2 23  1  0  0  0  0
  2 24  1  0  0  0  0
  7 25  1  0  0  0  0
  7 26  1  0  0  0  0
  8 27  1  0  0  0  0
  8 28  1  0  0  0  0
  8 29  1  0  0  0  0
 10 30  1  0  0  0  0
 10 31  1  0  0  0  0
 15 32  1  0  0  0  0
 15 33  1  0  0  0  0
 16 34  1  0  0  0  0
 16 35  1  0  0  0  0
 16 36  1  0  0  0  0
 18 37  1  0  0  0  0
 18 38  1  0  0  0  0
 19 39  1  0  0  0  0
 19 40  1  0  0  0  0
 19 41  1  0  0  0  0
M  END
