 xtb: 6.7.1 (edcfbbe)
          04092505213D

 41 40  0     0  0            999 V2000
    1.5862   -2.4582    1.8399 C   0  0  0  0  0  0  0  0  0  0  0  0
    1.8524   -0.9981    2.1440 C   0  0  0  0  0  0  0  0  0  0  0  0
    2.8907   -0.4375    1.3224 O   0  0  0  0  0  0  0  0  0  0  0  0
    2.7895   -0.2258   -0.2533 P   0  0  0  0  0  0  0  0  0  0  0  0
    2.9394   -1.7971   -1.4066 S   0  0  0  0  0  0  0  0  0  0  0  0
    3.9829    0.7596   -0.5280 O   0  0  0  0  0  0  0  0  0  0  0  0
    4.1509    2.0308    0.1493 C   0  0  0  0  0  0  0  0  0  0  0  0
    5.1280    1.9000    1.2996 C   0  0  0  0  0  0  0  0  0  0  0  0
    1.0183    0.9687   -0.5078 S   0  0  0  0  0  0  0  0  0  0  0  0
    0.0202   -0.2167   -1.4410 C   0  0  0  0  0  0  0  0  0  0  0  0
   -1.1375   -1.1343   -0.4019 S   0  0  0  0  0  0  0  0  0  0  0  0
   -2.5750    0.4385   -0.2372 P   0  0  0  0  0  0  0  0  0  0  0  0
   -2.8598    1.5070   -1.8501 S   0  0  0  0  0  0  0  0  0  0  0  0
   -2.0696    1.3265    0.9631 O   0  0  0  0  0  0  0  0  0  0  0  0
   -1.8414    0.8181    2.3014 C   0  0  0  0  0  0  0  0  0  0  0  0
   -3.0452    1.0671    3.1866 C   0  0  0  0  0  0  0  0  0  0  0  0
   -3.8586   -0.2790    0.3647 O   0  0  0  0  0  0  0  0  0  0  0  0
   -4.8607   -0.8977   -0.4626 C   0  0  0  0  0  0  0  0  0  0  0  0
   -4.3279   -2.0988   -1.2163 C   0  0  0  0  0  0  0  0  0  0  0  0
    0.8909   -2.8560    2.5720 H   0  0  0  0  0  0  0  0  0  0  0  0
    1.1525   -2.5704    0.8474 H   0  0  0  0  0  0  0  0  0  0  0  0
    2.5127   -3.0253    1.8775 H   0  0  0  0  0  0  0  0  0  0  0  0
    2.2293   -0.8669    3.1599 H   0  0  0  0  0  0  0  0  0  0  0  0
    0.9446   -0.4025    2.0074 H   0  0  0  0  0  0  0  0  0  0  0  0
    4.5326    2.7018   -0.6224 H   0  0  0  0  0  0  0  0  0  0  0  0
    3.1738    2.3840    0.4901 H   0  0  0  0  0  0  0  0  0  0  0  0
    6.0786    1.5201    0.9359 H   0  0  0  0  0  0  0  0  0  0  0  0
    5.2801    2.8764    1.7489 H   0  0  0  0  0  0  0  0  0  0  0  0
    4.7416    1.2141    2.0483 H   0  0  0  0  0  0  0  0  0  0  0  0
    0.6840   -0.9450   -1.9133 H   0  0  0  0  0  0  0  0  0  0  0  0
   -0.5464    0.3485   -2.1822 H   0  0  0  0  0  0  0  0  0  0  0  0
   -1.6123   -0.2499    2.2403 H   0  0  0  0  0  0  0  0  0  0  0  0
   -0.9690    1.3719    2.6542 H   0  0  0  0  0  0  0  0  0  0  0  0
   -3.9028    0.5074    2.8238 H   0  0  0  0  0  0  0  0  0  0  0  0
   -2.8120    0.7506    4.1984 H   0  0  0  0  0  0  0  0  0  0  0  0
   -3.2924    2.1251    3.1892 H   0  0  0  0  0  0  0  0  0  0  0  0
   -5.6417   -1.1814    0.2442 H   0  0  0  0  0  0  0  0  0  0  0  0
   -5.2439   -0.1456   -1.1590 H   0  0  0  0  0  0  0  0  0  0  0  0
   -3.6088   -1.7795   -1.9692 H   0  0  0  0  0  0  0  0  0  0  0  0
   -3.8389   -2.7897   -0.5340 H   0  0  0  0  0  0  0  0  0  0  0  0
   -5.1509   -2.6034   -1.7122 H   0  0  0  0  0  0  0  0  0  0  0  0
  1  2  1  0  0  0  0
  2  3  1  0  0  0  0
  3  4  2  0  0  0  0
  4  5  2  0  0  0  0
  4  6  2  0  0  0  0
  6  7  1  0  0  0  0
  7  8  1  0  0  0  0
  4  9  1  0  0  0  0
  9 10  1  0  0  0  0
 10 11  1  0  0  0  0
 11 12  1  0  0  0  0
 12 13  2  0  0  0  0
 12 14  2  0  0  0  0
 14 15  1  0  0  0  0
 15 16  1  0  0  0  0
 12 17  2  0  0  0  0
 17 18  1  0  0  0  0
 18 19  1  0  0  0  0
  1 20  1  0  0  0  0
  1 21  1  0  0  0  0
  1 22  1  0  0  0  0
  2 23  1  0  0  0  0
  2 24  1  0  0  0  0
  7 25  1  0  0  0  0
  7 26  1  0  0  0  0
  8 27  1  0  0  0  0
  8 28  1  0  0  0  0
  8 29  1  0  0  0  0
 10 30  1  0  0  0  0
 10 31  1  0  0  0  0
 15 32  1  0  0  0  0
 15 33  1  0  0  0  0
 16 34  1  0  0  0  0
 16 35  1  0  0  0  0
 16 36  1  0  0  0  0
 18 37  1  0  0  0  0
 18 38  1  0  0  0  0
 19 39  1  0  0  0  0
 19 40  1  0  0  0  0
 19 41  1  0  0  0  0
M  END
