 xtb: 6.7.1 (edcfbbe)
          04092505213D

 41 40  0     0  0            999 V2000
    5.7730   -1.2419    0.0173 C   0  0  0  0  0  0  0  0  0  0  0  0
    4.7450   -0.1655   -0.2643 C   0  0  0  0  0  0  0  0  0  0  0  0
    3.4573   -0.6650    0.1539 O   0  0  0  0  0  0  0  0  0  0  0  0
    2.1130    0.0469   -0.3086 P   0  0  0  0  0  0  0  0  0  0  0  0
    1.9542    0.3374   -2.2415 S   0  0  0  0  0  0  0  0  0  0  0  0
    2.0806    1.3571    0.5975 O   0  0  0  0  0  0  0  0  0  0  0  0
    1.8235    2.6900    0.1272 C   0  0  0  0  0  0  0  0  0  0  0  0
    3.1274    3.4428   -0.0451 C   0  0  0  0  0  0  0  0  0  0  0  0
    0.8484   -1.3320    0.6420 S   0  0  0  0  0  0  0  0  0  0  0  0
   -0.2284   -1.8112   -0.7630 C   0  0  0  0  0  0  0  0  0  0  0  0
   -1.9595   -1.8963   -0.2720 S   0  0  0  0  0  0  0  0  0  0  0  0
   -2.1767    0.1286    0.3497 P   0  0  0  0  0  0  0  0  0  0  0  0
   -1.1990    1.4622   -0.7018 S   0  0  0  0  0  0  0  0  0  0  0  0
   -1.7562    0.1945    1.8659 O   0  0  0  0  0  0  0  0  0  0  0  0
   -1.9515   -0.8360    2.8661 C   0  0  0  0  0  0  0  0  0  0  0  0
   -3.3960   -1.2689    2.9869 C   0  0  0  0  0  0  0  0  0  0  0  0
   -3.7455    0.3611    0.4122 O   0  0  0  0  0  0  0  0  0  0  0  0
   -4.5218    0.7902   -0.7200 C   0  0  0  0  0  0  0  0  0  0  0  0
   -4.5573   -0.2470   -1.8238 C   0  0  0  0  0  0  0  0  0  0  0  0
    5.7736   -1.4836    1.0762 H   0  0  0  0  0  0  0  0  0  0  0  0
    5.5361   -2.1390   -0.5473 H   0  0  0  0  0  0  0  0  0  0  0  0
    6.7548   -0.8822   -0.2729 H   0  0  0  0  0  0  0  0  0  0  0  0
    4.6937    0.0717   -1.3330 H   0  0  0  0  0  0  0  0  0  0  0  0
    4.9581    0.7486    0.2968 H   0  0  0  0  0  0  0  0  0  0  0  0
    1.2732    2.6409   -0.8176 H   0  0  0  0  0  0  0  0  0  0  0  0
    1.1856    3.1446    0.8871 H   0  0  0  0  0  0  0  0  0  0  0  0
    3.7219    2.9799   -0.8309 H   0  0  0  0  0  0  0  0  0  0  0  0
    2.9096    4.4683   -0.3248 H   0  0  0  0  0  0  0  0  0  0  0  0
    3.6911    3.4340    0.8839 H   0  0  0  0  0  0  0  0  0  0  0  0
    0.0462   -2.8092   -1.0946 H   0  0  0  0  0  0  0  0  0  0  0  0
   -0.0977   -1.0778   -1.5635 H   0  0  0  0  0  0  0  0  0  0  0  0
   -1.3028   -1.6795    2.6114 H   0  0  0  0  0  0  0  0  0  0  0  0
   -1.5919   -0.3619    3.7804 H   0  0  0  0  0  0  0  0  0  0  0  0
   -3.4865   -1.9665    3.8137 H   0  0  0  0  0  0  0  0  0  0  0  0
   -4.0328   -0.4075    3.1698 H   0  0  0  0  0  0  0  0  0  0  0  0
   -3.7205   -1.7597    2.0715 H   0  0  0  0  0  0  0  0  0  0  0  0
   -5.5133    0.9658   -0.3004 H   0  0  0  0  0  0  0  0  0  0  0  0
   -4.1026    1.7312   -1.0902 H   0  0  0  0  0  0  0  0  0  0  0  0
   -4.8564   -1.2137   -1.4272 H   0  0  0  0  0  0  0  0  0  0  0  0
   -5.2646    0.0659   -2.5853 H   0  0  0  0  0  0  0  0  0  0  0  0
   -3.5726   -0.3425   -2.2787 H   0  0  0  0  0  0  0  0  0  0  0  0
  1  2  1  0  0  0  0
  2  3  1  0  0  0  0
  3  4  2  0  0  0  0
  4  5  2  0  0  0  0
  4  6  2  0  0  0  0
  6  7  1  0  0  0  0
  7  8  1  0  0  0  0
  4  9  1  0  0  0  0
  9 10  1  0  0  0  0
 10 11  1  0  0  0  0
 11 12  1  0  0  0  0
 12 13  2  0  0  0  0
 12 14  2  0  0  0  0
 14 15  1  0  0  0  0
 15 16  1  0  0  0  0
 12 17  2  0  0  0  0
 17 18  1  0  0  0  0
 18 19  1  0  0  0  0
  1 20  1  0  0  0  0
  1 21  1  0  0  0  0
  1 22  1  0  0  0  0
  2 23  1  0  0  0  0
  2 24  1  0  0  0  0
  7 25  1  0  0  0  0
  7 26  1  0  0  0  0
  8 27  1  0  0  0  0
  8 28  1  0  0  0  0
  8 29  1  0  0  0  0
 10 30  1  0  0  0  0
 10 31  1  0  0  0  0
 15 32  1  0  0  0  0
 15 33  1  0  0  0  0
 16 34  1  0  0  0  0
 16 35  1  0  0  0  0
 16 36  1  0  0  0  0
 18 37  1  0  0  0  0
 18 38  1  0  0  0  0
 19 39  1  0  0  0  0
 19 40  1  0  0  0  0
 19 41  1  0  0  0  0
M  END
