 xtb: 6.7.1 (edcfbbe)
          04092507313D

 38 37  0     0  0            999 V2000
    5.3357   -2.2395   -0.5183 C   0  0  0  0  0  0  0  0  0  0  0  0
    4.6037   -1.0984    0.1700 C   0  0  0  0  0  0  0  0  0  0  0  0
    3.1787   -1.3112    0.1505 O   0  0  0  0  0  0  0  0  0  0  0  0
    2.5012   -0.9085   -0.9026 C   0  0  0  0  0  0  0  0  0  0  0  0
    2.9811   -0.3460   -1.8623 O   0  0  0  0  0  0  0  0  0  0  0  0
    1.0253   -1.2445   -0.7742 C   0  0  0  0  0  0  0  0  0  0  0  0
    0.2004   -0.0872   -1.3250 C   0  0  0  0  0  0  0  0  0  0  0  0
    0.5980    0.1916   -2.3082 H   0  0  0  0  0  0  0  0  0  0  0  0
    0.2579    1.1404   -0.4417 C   0  0  0  0  0  0  0  0  0  0  0  0
   -0.7000    1.8712   -0.2678 O   0  0  0  0  0  0  0  0  0  0  0  0
    1.4350    1.3222    0.0842 O   0  0  0  0  0  0  0  0  0  0  0  0
    1.6076    2.4397    0.9844 C   0  0  0  0  0  0  0  0  0  0  0  0
    3.0152    2.3746    1.5395 C   0  0  0  0  0  0  0  0  0  0  0  0
   -1.5479   -0.5085   -1.6179 S   0  0  0  0  0  0  0  0  0  0  0  0
   -2.4020   -0.0929    0.2790 P   0  0  0  0  0  0  0  0  0  0  0  0
   -1.2680   -0.2343    1.8817 S   0  0  0  0  0  0  0  0  0  0  0  0
   -3.3754    1.1510    0.1600 O   0  0  0  0  0  0  0  0  0  0  0  0
   -3.2397    2.3948    0.8515 C   0  0  0  0  0  0  0  0  0  0  0  0
   -3.5825   -1.1698    0.2750 O   0  0  0  0  0  0  0  0  0  0  0  0
   -3.3057   -2.5717    0.3613 C   0  0  0  0  0  0  0  0  0  0  0  0
    5.0725   -2.2704   -1.5731 H   0  0  0  0  0  0  0  0  0  0  0  0
    6.4058   -2.0857   -0.4270 H   0  0  0  0  0  0  0  0  0  0  0  0
    5.0691   -3.1869   -0.0581 H   0  0  0  0  0  0  0  0  0  0  0  0
    4.8190   -0.1468   -0.3237 H   0  0  0  0  0  0  0  0  0  0  0  0
    4.8575   -1.0456    1.2287 H   0  0  0  0  0  0  0  0  0  0  0  0
    0.7904   -1.4487    0.2709 H   0  0  0  0  0  0  0  0  0  0  0  0
    0.8258   -2.1369   -1.3702 H   0  0  0  0  0  0  0  0  0  0  0  0
    1.4276    3.3615    0.4239 H   0  0  0  0  0  0  0  0  0  0  0  0
    0.8527    2.3528    1.7723 H   0  0  0  0  0  0  0  0  0  0  0  0
    3.7371    2.4288    0.7299 H   0  0  0  0  0  0  0  0  0  0  0  0
    3.1704    3.2082    2.2159 H   0  0  0  0  0  0  0  0  0  0  0  0
    3.1567    1.4429    2.0793 H   0  0  0  0  0  0  0  0  0  0  0  0
   -2.6474    2.2648    1.7591 H   0  0  0  0  0  0  0  0  0  0  0  0
   -4.2511    2.7084    1.1001 H   0  0  0  0  0  0  0  0  0  0  0  0
   -2.7540    3.1178    0.1987 H   0  0  0  0  0  0  0  0  0  0  0  0
   -4.2672   -3.0469    0.5379 H   0  0  0  0  0  0  0  0  0  0  0  0
   -2.6261   -2.7694    1.1926 H   0  0  0  0  0  0  0  0  0  0  0  0
   -2.8691   -2.9266   -0.5723 H   0  0  0  0  0  0  0  0  0  0  0  0
  1  2  1  0  0  0  0
  2  3  1  0  0  0  0
  3  4  1  0  0  0  0
  4  5  2  0  0  0  0
  4  6  1  0  0  0  0
  6  7  1  0  0  0  0
  7  8  1  0  0  0  0
  7  9  1  0  0  0  0
  9 10  2  0  0  0  0
  9 11  4  0  0  0  0
 11 12  1  0  0  0  0
 12 13  1  0  0  0  0
  7 14  1  0  0  0  0
 14 15  1  0  0  0  0
 15 16  2  0  0  0  0
 15 17  2  0  0  0  0
 17 18  1  0  0  0  0
 15 19  1  0  0  0  0
 19 20  1  0  0  0  0
  1 21  1  0  0  0  0
  1 22  1  0  0  0  0
  1 23  1  0  0  0  0
  2 24  1  0  0  0  0
  2 25  1  0  0  0  0
  6 26  1  0  0  0  0
  6 27  1  0  0  0  0
 12 28  1  0  0  0  0
 12 29  1  0  0  0  0
 13 30  1  0  0  0  0
 13 31  1  0  0  0  0
 13 32  1  0  0  0  0
 18 33  1  0  0  0  0
 18 34  1  0  0  0  0
 18 35  1  0  0  0  0
 20 36  1  0  0  0  0
 20 37  1  0  0  0  0
 20 38  1  0  0  0  0
M  END
