 xtb: 6.7.1 (edcfbbe)
          04032520143D

 12 11  0     0  0            999 V2000
    1.2642   -0.7018   -0.0000 C   0  0  0  0  0  0  0  0  0  0  0  0
   -0.0000    0.1031    0.0000 C   0  0  0  0  0  0  0  0  0  0  0  0
   -0.0001    1.4263   -0.0000 C   0  0  0  0  0  0  0  0  0  0  0  0
   -1.2641   -0.7019    0.0000 C   0  0  0  0  0  0  0  0  0  0  0  0
    1.2997   -1.3434    0.8793 H   0  0  0  0  0  0  0  0  0  0  0  0
    1.2996   -1.3436   -0.8792 H   0  0  0  0  0  0  0  0  0  0  0  0
    2.1393   -0.0580   -0.0001 H   0  0  0  0  0  0  0  0  0  0  0  0
   -0.9141    1.9963    0.0000 H   0  0  0  0  0  0  0  0  0  0  0  0
    0.9138    1.9964    0.0000 H   0  0  0  0  0  0  0  0  0  0  0  0
   -1.2995   -1.3437    0.8792 H   0  0  0  0  0  0  0  0  0  0  0  0
   -2.1393   -0.0582    0.0001 H   0  0  0  0  0  0  0  0  0  0  0  0
   -1.2996   -1.3435   -0.8793 H   0  0  0  0  0  0  0  0  0  0  0  0
  1  2  1  0  0  0  0
  2  3  2  0  0  0  0
  2  4  1  0  0  0  0
  1  5  1  0  0  0  0
  1  6  1  0  0  0  0
  1  7  1  0  0  0  0
  3  8  1  0  0  0  0
  3  9  1  0  0  0  0
  4 10  1  0  0  0  0
  4 11  1  0  0  0  0
  4 12  1  0  0  0  0
M  END
