 xtb: 6.7.1 (edcfbbe)
          04092505213D

 41 40  0     0  0            999 V2000
    3.4041    2.2571   -1.5188 C   0  0  0  0  0  0  0  0  0  0  0  0
    4.1813    1.6625   -0.3623 C   0  0  0  0  0  0  0  0  0  0  0  0
    3.7899    0.3046   -0.1020 O   0  0  0  0  0  0  0  0  0  0  0  0
    2.3450   -0.0661    0.4470 P   0  0  0  0  0  0  0  0  0  0  0  0
    1.6958    1.1709    1.8328 S   0  0  0  0  0  0  0  0  0  0  0  0
    2.5182   -1.5773    0.8846 O   0  0  0  0  0  0  0  0  0  0  0  0
    2.8585   -1.9432    2.2382 C   0  0  0  0  0  0  0  0  0  0  0  0
    4.2787   -1.5489    2.5839 C   0  0  0  0  0  0  0  0  0  0  0  0
    1.2102   -0.3558   -1.3188 S   0  0  0  0  0  0  0  0  0  0  0  0
    0.0009   -1.5691   -0.7150 C   0  0  0  0  0  0  0  0  0  0  0  0
   -0.9669   -0.9997    0.7065 S   0  0  0  0  0  0  0  0  0  0  0  0
   -2.5294    0.0352   -0.3248 P   0  0  0  0  0  0  0  0  0  0  0  0
   -2.7516   -0.5123   -2.1983 S   0  0  0  0  0  0  0  0  0  0  0  0
   -2.3751    1.5705    0.0095 O   0  0  0  0  0  0  0  0  0  0  0  0
   -1.2361    2.3976   -0.2770 C   0  0  0  0  0  0  0  0  0  0  0  0
   -1.0144    2.5940   -1.7637 C   0  0  0  0  0  0  0  0  0  0  0  0
   -3.7853   -0.1849    0.6079 O   0  0  0  0  0  0  0  0  0  0  0  0
   -4.5997   -1.3709    0.4995 C   0  0  0  0  0  0  0  0  0  0  0  0
   -5.8767   -1.0622   -0.2575 C   0  0  0  0  0  0  0  0  0  0  0  0
    3.4986    1.6301   -2.4017 H   0  0  0  0  0  0  0  0  0  0  0  0
    2.3489    2.3272   -1.2537 H   0  0  0  0  0  0  0  0  0  0  0  0
    3.7807    3.2511   -1.7372 H   0  0  0  0  0  0  0  0  0  0  0  0
    4.0233    2.2492    0.5488 H   0  0  0  0  0  0  0  0  0  0  0  0
    5.2475    1.5935   -0.5813 H   0  0  0  0  0  0  0  0  0  0  0  0
    2.1450   -1.4641    2.9166 H   0  0  0  0  0  0  0  0  0  0  0  0
    2.7207   -3.0250    2.2601 H   0  0  0  0  0  0  0  0  0  0  0  0
    4.3695   -0.4634    2.5923 H   0  0  0  0  0  0  0  0  0  0  0  0
    4.5295   -1.9315    3.5683 H   0  0  0  0  0  0  0  0  0  0  0  0
    4.9699   -1.9535    1.8492 H   0  0  0  0  0  0  0  0  0  0  0  0
    0.5188   -2.4734   -0.4091 H   0  0  0  0  0  0  0  0  0  0  0  0
   -0.6728   -1.7556   -1.5552 H   0  0  0  0  0  0  0  0  0  0  0  0
   -1.4783    3.3414    0.2156 H   0  0  0  0  0  0  0  0  0  0  0  0
   -0.3519    1.9667    0.2048 H   0  0  0  0  0  0  0  0  0  0  0  0
   -0.7009    1.6639   -2.2350 H   0  0  0  0  0  0  0  0  0  0  0  0
   -1.9342    2.9312   -2.2351 H   0  0  0  0  0  0  0  0  0  0  0  0
   -0.2412    3.3412   -1.9130 H   0  0  0  0  0  0  0  0  0  0  0  0
   -4.0334   -2.1610   -0.0031 H   0  0  0  0  0  0  0  0  0  0  0  0
   -4.8068   -1.6684    1.5290 H   0  0  0  0  0  0  0  0  0  0  0  0
   -6.5114   -1.9424   -0.2653 H   0  0  0  0  0  0  0  0  0  0  0  0
   -6.4021   -0.2402    0.2201 H   0  0  0  0  0  0  0  0  0  0  0  0
   -5.6436   -0.7820   -1.2825 H   0  0  0  0  0  0  0  0  0  0  0  0
  1  2  1  0  0  0  0
  2  3  1  0  0  0  0
  3  4  2  0  0  0  0
  4  5  2  0  0  0  0
  4  6  2  0  0  0  0
  6  7  1  0  0  0  0
  7  8  1  0  0  0  0
  4  9  1  0  0  0  0
  9 10  1  0  0  0  0
 10 11  1  0  0  0  0
 11 12  1  0  0  0  0
 12 13  2  0  0  0  0
 12 14  2  0  0  0  0
 14 15  1  0  0  0  0
 15 16  1  0  0  0  0
 12 17  2  0  0  0  0
 17 18  1  0  0  0  0
 18 19  1  0  0  0  0
  1 20  1  0  0  0  0
  1 21  1  0  0  0  0
  1 22  1  0  0  0  0
  2 23  1  0  0  0  0
  2 24  1  0  0  0  0
  7 25  1  0  0  0  0
  7 26  1  0  0  0  0
  8 27  1  0  0  0  0
  8 28  1  0  0  0  0
  8 29  1  0  0  0  0
 10 30  1  0  0  0  0
 10 31  1  0  0  0  0
 15 32  1  0  0  0  0
 15 33  1  0  0  0  0
 16 34  1  0  0  0  0
 16 35  1  0  0  0  0
 16 36  1  0  0  0  0
 18 37  1  0  0  0  0
 18 38  1  0  0  0  0
 19 39  1  0  0  0  0
 19 40  1  0  0  0  0
 19 41  1  0  0  0  0
M  END
