 xtb: 6.7.1 (edcfbbe)
          04092507313D

 38 37  0     0  0            999 V2000
    3.2631   -1.6539    1.6660 C   0  0  0  0  0  0  0  0  0  0  0  0
    3.0836   -2.2210    0.2680 C   0  0  0  0  0  0  0  0  0  0  0  0
    2.7936   -1.1684   -0.6731 O   0  0  0  0  0  0  0  0  0  0  0  0
    1.5676   -1.0130   -1.1212 C   0  0  0  0  0  0  0  0  0  0  0  0
    0.6177   -1.6957   -0.7861 O   0  0  0  0  0  0  0  0  0  0  0  0
    1.4862    0.1045   -2.1395 C   0  0  0  0  0  0  0  0  0  0  0  0
    0.2844    1.0200   -1.8996 C   0  0  0  0  0  0  0  0  0  0  0  0
    0.2065    1.7334   -2.7248 H   0  0  0  0  0  0  0  0  0  0  0  0
    0.3884    1.7981   -0.6017 C   0  0  0  0  0  0  0  0  0  0  0  0
   -0.5296    1.8404    0.1984 O   0  0  0  0  0  0  0  0  0  0  0  0
    1.5327    2.4008   -0.4691 O   0  0  0  0  0  0  0  0  0  0  0  0
    1.7971    3.1403    0.7459 C   0  0  0  0  0  0  0  0  0  0  0  0
    2.3904    2.2258    1.8037 C   0  0  0  0  0  0  0  0  0  0  0  0
   -1.3202    0.1443   -1.8870 S   0  0  0  0  0  0  0  0  0  0  0  0
   -1.5780   -0.3956    0.1480 P   0  0  0  0  0  0  0  0  0  0  0  0
   -0.3929   -0.5818    1.7170 S   0  0  0  0  0  0  0  0  0  0  0  0
   -2.9374    0.3590    0.5638 O   0  0  0  0  0  0  0  0  0  0  0  0
   -3.0388    1.4634    1.4578 C   0  0  0  0  0  0  0  0  0  0  0  0
   -2.2264   -1.7960   -0.2843 O   0  0  0  0  0  0  0  0  0  0  0  0
   -2.7101   -2.7346    0.6762 C   0  0  0  0  0  0  0  0  0  0  0  0
    4.0373   -0.8925    1.6662 H   0  0  0  0  0  0  0  0  0  0  0  0
    2.3301   -1.2170    2.0176 H   0  0  0  0  0  0  0  0  0  0  0  0
    3.5473   -2.4544    2.3406 H   0  0  0  0  0  0  0  0  0  0  0  0
    2.2659   -2.9466    0.2443 H   0  0  0  0  0  0  0  0  0  0  0  0
    4.0064   -2.6754   -0.0962 H   0  0  0  0  0  0  0  0  0  0  0  0
    1.3734   -0.3588   -3.1214 H   0  0  0  0  0  0  0  0  0  0  0  0
    2.4090    0.6835   -2.1074 H   0  0  0  0  0  0  0  0  0  0  0  0
    2.5044    3.9105    0.4392 H   0  0  0  0  0  0  0  0  0  0  0  0
    0.8637    3.5881    1.0953 H   0  0  0  0  0  0  0  0  0  0  0  0
    1.6802    1.4445    2.0713 H   0  0  0  0  0  0  0  0  0  0  0  0
    3.2987    1.7609    1.4309 H   0  0  0  0  0  0  0  0  0  0  0  0
    2.6215    2.8048    2.6912 H   0  0  0  0  0  0  0  0  0  0  0  0
   -2.2665    1.3947    2.2262 H   0  0  0  0  0  0  0  0  0  0  0  0
   -4.0289    1.3967    1.9030 H   0  0  0  0  0  0  0  0  0  0  0  0
   -2.9229    2.3940    0.9053 H   0  0  0  0  0  0  0  0  0  0  0  0
   -2.8310   -3.6712    0.1376 H   0  0  0  0  0  0  0  0  0  0  0  0
   -3.6639   -2.3957    1.0816 H   0  0  0  0  0  0  0  0  0  0  0  0
   -1.9859   -2.8529    1.4856 H   0  0  0  0  0  0  0  0  0  0  0  0
  1  2  1  0  0  0  0
  2  3  1  0  0  0  0
  3  4  4  0  0  0  0
  4  5  2  0  0  0  0
  4  6  1  0  0  0  0
  6  7  1  0  0  0  0
  7  8  1  0  0  0  0
  7  9  1  0  0  0  0
  9 10  2  0  0  0  0
  9 11  4  0  0  0  0
 11 12  1  0  0  0  0
 12 13  1  0  0  0  0
  7 14  1  0  0  0  0
 14 15  1  0  0  0  0
 15 16  2  0  0  0  0
 15 17  1  0  0  0  0
 17 18  1  0  0  0  0
 15 19  1  0  0  0  0
 19 20  1  0  0  0  0
  1 21  1  0  0  0  0
  1 22  1  0  0  0  0
  1 23  1  0  0  0  0
  2 24  1  0  0  0  0
  2 25  1  0  0  0  0
  6 26  1  0  0  0  0
  6 27  1  0  0  0  0
 12 28  1  0  0  0  0
 12 29  1  0  0  0  0
 13 30  1  0  0  0  0
 13 31  1  0  0  0  0
 13 32  1  0  0  0  0
 18 33  1  0  0  0  0
 18 34  1  0  0  0  0
 18 35  1  0  0  0  0
 20 36  1  0  0  0  0
 20 37  1  0  0  0  0
 20 38  1  0  0  0  0
M  END
