 xtb: 6.7.1 (edcfbbe)
          04032519423D

 20 20  0     0  0            999 V2000
    0.6543    1.6862   -0.0246 C   0  0  0  0  0  0  0  0  0  0  0  0
    1.4227    0.3832   -0.2604 C   0  0  0  0  0  0  0  0  0  0  0  0
    1.6309    0.2695   -1.3353 H   0  0  0  0  0  0  0  0  0  0  0  0
    0.5582   -0.8062    0.1790 C   0  0  0  0  0  0  0  0  0  0  0  0
    0.4250   -0.7703    1.2719 H   0  0  0  0  0  0  0  0  0  0  0  0
   -0.8168   -0.7367   -0.5004 C   0  0  0  0  0  0  0  0  0  0  0  0
   -0.6673   -0.8666   -1.5832 H   0  0  0  0  0  0  0  0  0  0  0  0
   -1.4741    0.6450   -0.2742 C   0  0  0  0  0  0  0  0  0  0  0  0
   -2.3439    0.7642   -0.9313 H   0  0  0  0  0  0  0  0  0  0  0  0
   -0.6059    1.6800   -0.6729 O   0  0  0  0  0  0  0  0  0  0  0  0
   -1.9701    0.8004    1.0146 O   0  0  0  0  0  0  0  0  0  0  0  0
   -1.5892   -1.7827    0.0343 O   0  0  0  0  0  0  0  0  0  0  0  0
    1.2403   -1.9867   -0.1704 O   0  0  0  0  0  0  0  0  0  0  0  0
    2.6195    0.4471    0.4708 O   0  0  0  0  0  0  0  0  0  0  0  0
    1.1989    2.5266   -0.4534 H   0  0  0  0  0  0  0  0  0  0  0  0
    0.5474    1.8508    1.0543 H   0  0  0  0  0  0  0  0  0  0  0  0
   -1.3113    0.5526    1.6797 H   0  0  0  0  0  0  0  0  0  0  0  0
   -2.4782   -1.7761   -0.3462 H   0  0  0  0  0  0  0  0  0  0  0  0
    0.6658   -2.7432    0.0190 H   0  0  0  0  0  0  0  0  0  0  0  0
    3.0774   -0.4026    0.3812 H   0  0  0  0  0  0  0  0  0  0  0  0
  1  2  1  0  0  0  0
  2  3  1  0  0  0  0
  2  4  1  0  0  0  0
  4  5  1  0  0  0  0
  4  6  1  0  0  0  0
  6  7  1  0  0  0  0
  6  8  1  0  0  0  0
  8  9  1  0  0  0  0
  1 10  1  0  0  0  0
  8 10  1  0  0  0  0
  8 11  1  0  0  0  0
  6 12  1  0  0  0  0
  4 13  1  0  0  0  0
  2 14  1  0  0  0  0
  1 15  1  0  0  0  0
  1 16  1  0  0  0  0
 11 17  1  0  0  0  0
 12 18  1  0  0  0  0
 13 19  1  0  0  0  0
 14 20  1  0  0  0  0
M  END
