 xtb: 6.7.1 (edcfbbe)
          04032520443D

 10  9  0     0  0            999 V2000
   -1.8549   -0.8329    0.4635 C   0  0  0  0  0  0  0  0  0  0  0  0
   -0.9011    0.4150   -0.4709 S   0  0  0  0  0  0  0  0  0  0  0  0
    0.8955    0.4086    0.4727 S   0  0  0  0  0  0  0  0  0  0  0  0
    1.8682   -0.8325   -0.4656 C   0  0  0  0  0  0  0  0  0  0  0  0
   -1.3832   -1.8033    0.3543 H   0  0  0  0  0  0  0  0  0  0  0  0
   -2.8438   -0.8369    0.0200 H   0  0  0  0  0  0  0  0  0  0  0  0
   -1.9022   -0.5334    1.5046 H   0  0  0  0  0  0  0  0  0  0  0  0
    2.2482   -1.5586    0.2439 H   0  0  0  0  0  0  0  0  0  0  0  0
    2.6825   -0.3185   -0.9637 H   0  0  0  0  0  0  0  0  0  0  0  0
    1.2160   -1.3049   -1.1906 H   0  0  0  0  0  0  0  0  0  0  0  0
  1  2  1  0  0  0  0
  2  3  1  0  0  0  0
  3  4  1  0  0  0  0
  1  5  1  0  0  0  0
  1  6  1  0  0  0  0
  1  7  1  0  0  0  0
  4  8  1  0  0  0  0
  4  9  1  0  0  0  0
  4 10  1  0  0  0  0
M  END
