 xtb: 6.7.1 (edcfbbe)
          04092505213D

 41 40  0     0  0            999 V2000
    5.1894   -0.8419   -2.3642 C   0  0  0  0  0  0  0  0  0  0  0  0
    3.7401   -1.1174   -2.0172 C   0  0  0  0  0  0  0  0  0  0  0  0
    3.5043   -0.6427   -0.6766 O   0  0  0  0  0  0  0  0  0  0  0  0
    2.0558   -0.2572   -0.1538 P   0  0  0  0  0  0  0  0  0  0  0  0
    1.0340    0.8384   -1.4242 S   0  0  0  0  0  0  0  0  0  0  0  0
    2.3556    0.3672    1.2659 O   0  0  0  0  0  0  0  0  0  0  0  0
    2.6125    1.7715    1.4660 C   0  0  0  0  0  0  0  0  0  0  0  0
    3.8706    2.2221    0.7562 C   0  0  0  0  0  0  0  0  0  0  0  0
    1.3126   -2.1436    0.4221 S   0  0  0  0  0  0  0  0  0  0  0  0
   -0.3213   -1.7007    1.0726 C   0  0  0  0  0  0  0  0  0  0  0  0
   -1.5327   -1.3206   -0.2322 S   0  0  0  0  0  0  0  0  0  0  0  0
   -2.2387    0.5291    0.5553 P   0  0  0  0  0  0  0  0  0  0  0  0
   -0.9446    1.6137    1.5433 S   0  0  0  0  0  0  0  0  0  0  0  0
   -3.4347    0.1569    1.5105 O   0  0  0  0  0  0  0  0  0  0  0  0
   -4.5745   -0.6425    1.0968 C   0  0  0  0  0  0  0  0  0  0  0  0
   -4.5186   -2.0077    1.7525 C   0  0  0  0  0  0  0  0  0  0  0  0
   -3.0065    1.2240   -0.6447 O   0  0  0  0  0  0  0  0  0  0  0  0
   -2.3917    1.8328   -1.7969 C   0  0  0  0  0  0  0  0  0  0  0  0
   -2.3675    0.8725   -2.9689 C   0  0  0  0  0  0  0  0  0  0  0  0
    5.8404   -1.3288   -1.6441 H   0  0  0  0  0  0  0  0  0  0  0  0
    5.3964   -1.2287   -3.3566 H   0  0  0  0  0  0  0  0  0  0  0  0
    5.3839    0.2269   -2.3486 H   0  0  0  0  0  0  0  0  0  0  0  0
    3.5211   -2.1879   -2.0392 H   0  0  0  0  0  0  0  0  0  0  0  0
    3.0579   -0.5966   -2.6979 H   0  0  0  0  0  0  0  0  0  0  0  0
    1.7394    2.3357    1.1226 H   0  0  0  0  0  0  0  0  0  0  0  0
    2.6957    1.8649    2.5495 H   0  0  0  0  0  0  0  0  0  0  0  0
    4.0777    3.2556    1.0154 H   0  0  0  0  0  0  0  0  0  0  0  0
    4.7099    1.5964    1.0487 H   0  0  0  0  0  0  0  0  0  0  0  0
    3.7322    2.1483   -0.3220 H   0  0  0  0  0  0  0  0  0  0  0  0
   -0.2281   -0.8293    1.7255 H   0  0  0  0  0  0  0  0  0  0  0  0
   -0.6598   -2.5758    1.6207 H   0  0  0  0  0  0  0  0  0  0  0  0
   -5.4456   -0.0761    1.4292 H   0  0  0  0  0  0  0  0  0  0  0  0
   -4.5812   -0.7218    0.0082 H   0  0  0  0  0  0  0  0  0  0  0  0
   -4.4113   -1.8986    2.8281 H   0  0  0  0  0  0  0  0  0  0  0  0
   -5.4393   -2.5406    1.5370 H   0  0  0  0  0  0  0  0  0  0  0  0
   -3.6794   -2.5819    1.3680 H   0  0  0  0  0  0  0  0  0  0  0  0
   -3.0164    2.7026   -2.0084 H   0  0  0  0  0  0  0  0  0  0  0  0
   -1.3815    2.1638   -1.5399 H   0  0  0  0  0  0  0  0  0  0  0  0
   -1.9917    1.3962   -3.8417 H   0  0  0  0  0  0  0  0  0  0  0  0
   -1.7090    0.0329   -2.7588 H   0  0  0  0  0  0  0  0  0  0  0  0
   -3.3679    0.5009   -3.1708 H   0  0  0  0  0  0  0  0  0  0  0  0
  1  2  1  0  0  0  0
  2  3  1  0  0  0  0
  3  4  2  0  0  0  0
  4  5  2  0  0  0  0
  4  6  2  0  0  0  0
  6  7  1  0  0  0  0
  7  8  1  0  0  0  0
  4  9  1  0  0  0  0
  9 10  1  0  0  0  0
 10 11  1  0  0  0  0
 11 12  1  0  0  0  0
 12 13  2  0  0  0  0
 12 14  2  0  0  0  0
 14 15  1  0  0  0  0
 15 16  1  0  0  0  0
 12 17  2  0  0  0  0
 17 18  1  0  0  0  0
 18 19  1  0  0  0  0
  1 20  1  0  0  0  0
  1 21  1  0  0  0  0
  1 22  1  0  0  0  0
  2 23  1  0  0  0  0
  2 24  1  0  0  0  0
  7 25  1  0  0  0  0
  7 26  1  0  0  0  0
  8 27  1  0  0  0  0
  8 28  1  0  0  0  0
  8 29  1  0  0  0  0
 10 30  1  0  0  0  0
 10 31  1  0  0  0  0
 15 32  1  0  0  0  0
 15 33  1  0  0  0  0
 16 34  1  0  0  0  0
 16 35  1  0  0  0  0
 16 36  1  0  0  0  0
 18 37  1  0  0  0  0
 18 38  1  0  0  0  0
 19 39  1  0  0  0  0
 19 40  1  0  0  0  0
 19 41  1  0  0  0  0
M  END
