 xtb: 6.7.1 (edcfbbe)
          04092505213D

 41 40  0     0  0            999 V2000
    2.9860    1.7833   -1.8971 C   0  0  0  0  0  0  0  0  0  0  0  0
    3.3977    1.6261   -0.4469 C   0  0  0  0  0  0  0  0  0  0  0  0
    2.2900    1.1499    0.3604 O   0  0  0  0  0  0  0  0  0  0  0  0
    2.0808   -0.3432    0.8203 P   0  0  0  0  0  0  0  0  0  0  0  0
    0.5404   -0.4227    2.0258 S   0  0  0  0  0  0  0  0  0  0  0  0
    3.5141   -0.6882    1.4124 O   0  0  0  0  0  0  0  0  0  0  0  0
    4.0290   -2.0145    1.6368 C   0  0  0  0  0  0  0  0  0  0  0  0
    3.1212   -2.8537    2.5109 C   0  0  0  0  0  0  0  0  0  0  0  0
    1.9821   -1.6006   -0.9037 S   0  0  0  0  0  0  0  0  0  0  0  0
    0.2207   -1.4334   -1.2253 C   0  0  0  0  0  0  0  0  0  0  0  0
   -0.2253    0.2990   -1.6130 S   0  0  0  0  0  0  0  0  0  0  0  0
   -2.1383    0.3855   -0.7408 P   0  0  0  0  0  0  0  0  0  0  0  0
   -2.6929   -1.1020    0.4183 S   0  0  0  0  0  0  0  0  0  0  0  0
   -3.0092    0.5263   -2.0564 O   0  0  0  0  0  0  0  0  0  0  0  0
   -4.4176    0.2239   -2.0842 C   0  0  0  0  0  0  0  0  0  0  0  0
   -5.2208    1.2348   -1.2936 C   0  0  0  0  0  0  0  0  0  0  0  0
   -2.2288    1.8728   -0.1821 O   0  0  0  0  0  0  0  0  0  0  0  0
   -1.4911    2.4028    0.9303 C   0  0  0  0  0  0  0  0  0  0  0  0
   -2.1508    2.0654    2.2524 C   0  0  0  0  0  0  0  0  0  0  0  0
    2.1036    2.4130   -1.9712 H   0  0  0  0  0  0  0  0  0  0  0  0
    3.8022    2.2422   -2.4459 H   0  0  0  0  0  0  0  0  0  0  0  0
    2.7559    0.8185   -2.3420 H   0  0  0  0  0  0  0  0  0  0  0  0
    3.6550    2.5888   -0.0024 H   0  0  0  0  0  0  0  0  0  0  0  0
    4.2371    0.9370   -0.3420 H   0  0  0  0  0  0  0  0  0  0  0  0
    4.1789   -2.4913    0.6643 H   0  0  0  0  0  0  0  0  0  0  0  0
    4.9922   -1.8360    2.1181 H   0  0  0  0  0  0  0  0  0  0  0  0
    3.5925   -3.8111    2.7079 H   0  0  0  0  0  0  0  0  0  0  0  0
    2.9257   -2.3470    3.4532 H   0  0  0  0  0  0  0  0  0  0  0  0
    2.1689   -3.0242    2.0104 H   0  0  0  0  0  0  0  0  0  0  0  0
   -0.3516   -1.7460   -0.3465 H   0  0  0  0  0  0  0  0  0  0  0  0
    0.0039   -2.0644   -2.0836 H   0  0  0  0  0  0  0  0  0  0  0  0
   -4.6679    0.2436   -3.1456 H   0  0  0  0  0  0  0  0  0  0  0  0
   -4.5634   -0.7841   -1.6825 H   0  0  0  0  0  0  0  0  0  0  0  0
   -5.0054    2.2414   -1.6423 H   0  0  0  0  0  0  0  0  0  0  0  0
   -6.2799    1.0274   -1.4093 H   0  0  0  0  0  0  0  0  0  0  0  0
   -4.9578    1.1650   -0.2386 H   0  0  0  0  0  0  0  0  0  0  0  0
   -0.4644    2.0237    0.9035 H   0  0  0  0  0  0  0  0  0  0  0  0
   -1.4857    3.4800    0.7522 H   0  0  0  0  0  0  0  0  0  0  0  0
   -1.6156    2.5629    3.0548 H   0  0  0  0  0  0  0  0  0  0  0  0
   -3.1876    2.3906    2.2507 H   0  0  0  0  0  0  0  0  0  0  0  0
   -2.1147    0.9918    2.4291 H   0  0  0  0  0  0  0  0  0  0  0  0
  1  2  1  0  0  0  0
  2  3  1  0  0  0  0
  3  4  2  0  0  0  0
  4  5  2  0  0  0  0
  4  6  2  0  0  0  0
  6  7  1  0  0  0  0
  7  8  1  0  0  0  0
  4  9  1  0  0  0  0
  9 10  1  0  0  0  0
 10 11  1  0  0  0  0
 11 12  1  0  0  0  0
 12 13  2  0  0  0  0
 12 14  2  0  0  0  0
 14 15  1  0  0  0  0
 15 16  1  0  0  0  0
 12 17  2  0  0  0  0
 17 18  1  0  0  0  0
 18 19  1  0  0  0  0
  1 20  1  0  0  0  0
  1 21  1  0  0  0  0
  1 22  1  0  0  0  0
  2 23  1  0  0  0  0
  2 24  1  0  0  0  0
  7 25  1  0  0  0  0
  7 26  1  0  0  0  0
  8 27  1  0  0  0  0
  8 28  1  0  0  0  0
  8 29  1  0  0  0  0
 10 30  1  0  0  0  0
 10 31  1  0  0  0  0
 15 32  1  0  0  0  0
 15 33  1  0  0  0  0
 16 34  1  0  0  0  0
 16 35  1  0  0  0  0
 16 36  1  0  0  0  0
 18 37  1  0  0  0  0
 18 38  1  0  0  0  0
 19 39  1  0  0  0  0
 19 40  1  0  0  0  0
 19 41  1  0  0  0  0
M  END
