 xtb: 6.7.1 (edcfbbe)
          04092505213D

 41 40  0     0  0            999 V2000
    4.8422   -2.0144   -0.6404 C   0  0  0  0  0  0  0  0  0  0  0  0
    4.5444   -1.1492    0.5661 C   0  0  0  0  0  0  0  0  0  0  0  0
    3.8629    0.0735    0.2275 O   0  0  0  0  0  0  0  0  0  0  0  0
    2.5164    0.1805   -0.6064 P   0  0  0  0  0  0  0  0  0  0  0  0
    2.6575   -0.0003   -2.5511 S   0  0  0  0  0  0  0  0  0  0  0  0
    2.0379    1.6457   -0.2684 O   0  0  0  0  0  0  0  0  0  0  0  0
    1.4728    2.1388    0.9671 C   0  0  0  0  0  0  0  0  0  0  0  0
    2.2749    1.7694    2.1962 C   0  0  0  0  0  0  0  0  0  0  0  0
    1.2155   -1.1983    0.3652 S   0  0  0  0  0  0  0  0  0  0  0  0
    0.0026   -1.3117   -0.9670 C   0  0  0  0  0  0  0  0  0  0  0  0
   -0.8054    0.2782   -1.3403 S   0  0  0  0  0  0  0  0  0  0  0  0
   -2.2829    0.2412    0.1803 P   0  0  0  0  0  0  0  0  0  0  0  0
   -3.3400    1.8818    0.3313 S   0  0  0  0  0  0  0  0  0  0  0  0
   -1.4121   -0.1565    1.4374 O   0  0  0  0  0  0  0  0  0  0  0  0
   -1.8566    0.1015    2.7880 C   0  0  0  0  0  0  0  0  0  0  0  0
   -3.0559   -0.7469    3.1499 C   0  0  0  0  0  0  0  0  0  0  0  0
   -3.0765   -1.1182   -0.0907 O   0  0  0  0  0  0  0  0  0  0  0  0
   -4.0815   -1.2096   -1.1179 C   0  0  0  0  0  0  0  0  0  0  0  0
   -5.4635   -0.9776   -0.5383 C   0  0  0  0  0  0  0  0  0  0  0  0
    5.4313   -2.8721   -0.3321 H   0  0  0  0  0  0  0  0  0  0  0  0
    3.9151   -2.3629   -1.0928 H   0  0  0  0  0  0  0  0  0  0  0  0
    5.3931   -1.4477   -1.3873 H   0  0  0  0  0  0  0  0  0  0  0  0
    5.4627   -0.8052    1.0453 H   0  0  0  0  0  0  0  0  0  0  0  0
    3.9286   -1.6930    1.2878 H   0  0  0  0  0  0  0  0  0  0  0  0
    1.4452    3.2191    0.8137 H   0  0  0  0  0  0  0  0  0  0  0  0
    0.4467    1.7629    1.0403 H   0  0  0  0  0  0  0  0  0  0  0  0
    2.2414    0.6949    2.3658 H   0  0  0  0  0  0  0  0  0  0  0  0
    3.3097    2.0778    2.0730 H   0  0  0  0  0  0  0  0  0  0  0  0
    1.8486    2.2768    3.0564 H   0  0  0  0  0  0  0  0  0  0  0  0
   -0.7416   -2.0425   -0.6614 H   0  0  0  0  0  0  0  0  0  0  0  0
    0.5087   -1.6038   -1.8870 H   0  0  0  0  0  0  0  0  0  0  0  0
   -0.9848   -0.1424    3.3964 H   0  0  0  0  0  0  0  0  0  0  0  0
   -2.0949    1.1660    2.8769 H   0  0  0  0  0  0  0  0  0  0  0  0
   -3.9085   -0.4565    2.5374 H   0  0  0  0  0  0  0  0  0  0  0  0
   -2.8391   -1.7978    2.9784 H   0  0  0  0  0  0  0  0  0  0  0  0
   -3.3037   -0.5933    4.1955 H   0  0  0  0  0  0  0  0  0  0  0  0
   -3.8610   -0.4824   -1.9062 H   0  0  0  0  0  0  0  0  0  0  0  0
   -3.9846   -2.2207   -1.5182 H   0  0  0  0  0  0  0  0  0  0  0  0
   -5.5412    0.0343   -0.1464 H   0  0  0  0  0  0  0  0  0  0  0  0
   -6.2056   -1.1109   -1.3188 H   0  0  0  0  0  0  0  0  0  0  0  0
   -5.6549   -1.6840    0.2645 H   0  0  0  0  0  0  0  0  0  0  0  0
  1  2  1  0  0  0  0
  2  3  1  0  0  0  0
  3  4  2  0  0  0  0
  4  5  2  0  0  0  0
  4  6  2  0  0  0  0
  6  7  1  0  0  0  0
  7  8  1  0  0  0  0
  4  9  1  0  0  0  0
  9 10  1  0  0  0  0
 10 11  1  0  0  0  0
 11 12  1  0  0  0  0
 12 13  2  0  0  0  0
 12 14  2  0  0  0  0
 14 15  1  0  0  0  0
 15 16  1  0  0  0  0
 12 17  1  0  0  0  0
 17 18  1  0  0  0  0
 18 19  1  0  0  0  0
  1 20  1  0  0  0  0
  1 21  1  0  0  0  0
  1 22  1  0  0  0  0
  2 23  1  0  0  0  0
  2 24  1  0  0  0  0
  7 25  1  0  0  0  0
  7 26  1  0  0  0  0
  8 27  1  0  0  0  0
  8 28  1  0  0  0  0
  8 29  1  0  0  0  0
 10 30  1  0  0  0  0
 10 31  1  0  0  0  0
 15 32  1  0  0  0  0
 15 33  1  0  0  0  0
 16 34  1  0  0  0  0
 16 35  1  0  0  0  0
 16 36  1  0  0  0  0
 18 37  1  0  0  0  0
 18 38  1  0  0  0  0
 19 39  1  0  0  0  0
 19 40  1  0  0  0  0
 19 41  1  0  0  0  0
M  END
