 xtb: 6.7.1 (edcfbbe)
          04032519583D

 10  9  0     0  0            999 V2000
   -0.7188   -0.5982   -0.2618 C   0  0  0  0  0  0  0  0  0  0  0  0
    0.7109   -0.5954    0.2899 C   0  0  0  0  0  0  0  0  0  0  0  0
    1.4634    0.5282   -0.1048 O   0  0  0  0  0  0  0  0  0  0  0  0
   -1.4562    0.5526    0.0794 O   0  0  0  0  0  0  0  0  0  0  0  0
   -1.2271   -1.5049    0.0940 H   0  0  0  0  0  0  0  0  0  0  0  0
   -0.7012   -0.6139   -1.3546 H   0  0  0  0  0  0  0  0  0  0  0  0
    1.2064   -1.5247   -0.0225 H   0  0  0  0  0  0  0  0  0  0  0  0
    0.6944   -0.5596    1.3821 H   0  0  0  0  0  0  0  0  0  0  0  0
    1.4483    0.6012   -1.0692 H   0  0  0  0  0  0  0  0  0  0  0  0
   -1.4425    0.6694    1.0395 H   0  0  0  0  0  0  0  0  0  0  0  0
  1  2  1  0  0  0  0
  2  3  1  0  0  0  0
  1  4  1  0  0  0  0
  1  5  1  0  0  0  0
  1  6  1  0  0  0  0
  2  7  1  0  0  0  0
  2  8  1  0  0  0  0
  3  9  1  0  0  0  0
  4 10  1  0  0  0  0
M  END
