 xtb: 6.7.1 (edcfbbe)
          04092505203D

 41 40  0     0  0            999 V2000
    3.2255    1.9546    2.5967 C   0  0  0  0  0  0  0  0  0  0  0  0
    1.8179    1.4503    2.3605 C   0  0  0  0  0  0  0  0  0  0  0  0
    1.6161    1.0592    0.9849 O   0  0  0  0  0  0  0  0  0  0  0  0
    2.3094   -0.2233    0.3632 P   0  0  0  0  0  0  0  0  0  0  0  0
    2.6113   -1.7200    1.5978 S   0  0  0  0  0  0  0  0  0  0  0  0
    3.6169    0.3973   -0.2906 O   0  0  0  0  0  0  0  0  0  0  0  0
    4.7278   -0.4155   -0.7067 C   0  0  0  0  0  0  0  0  0  0  0  0
    4.3810   -1.2930   -1.8922 C   0  0  0  0  0  0  0  0  0  0  0  0
    1.0105   -0.5709   -1.2709 S   0  0  0  0  0  0  0  0  0  0  0  0
   -0.1777   -1.5849   -0.3473 C   0  0  0  0  0  0  0  0  0  0  0  0
   -1.2152   -0.6141    0.7670 S   0  0  0  0  0  0  0  0  0  0  0  0
   -2.4516    0.2468   -0.7495 P   0  0  0  0  0  0  0  0  0  0  0  0
   -2.7864   -0.8804   -2.3128 S   0  0  0  0  0  0  0  0  0  0  0  0
   -1.7788    1.6059   -1.1762 O   0  0  0  0  0  0  0  0  0  0  0  0
   -1.1287    2.5910   -0.3378 C   0  0  0  0  0  0  0  0  0  0  0  0
   -1.9398    2.9634    0.8842 C   0  0  0  0  0  0  0  0  0  0  0  0
   -3.7560    0.7198    0.0250 O   0  0  0  0  0  0  0  0  0  0  0  0
   -4.8962   -0.1375    0.2086 C   0  0  0  0  0  0  0  0  0  0  0  0
   -4.5946   -1.3142    1.1140 C   0  0  0  0  0  0  0  0  0  0  0  0
    3.3070    2.3338    3.6105 H   0  0  0  0  0  0  0  0  0  0  0  0
    3.9373    1.1405    2.4655 H   0  0  0  0  0  0  0  0  0  0  0  0
    3.4646    2.7466    1.8919 H   0  0  0  0  0  0  0  0  0  0  0  0
    1.0733    2.2304    2.5237 H   0  0  0  0  0  0  0  0  0  0  0  0
    1.5992    0.5890    2.9992 H   0  0  0  0  0  0  0  0  0  0  0  0
    5.5047    0.3088   -0.9547 H   0  0  0  0  0  0  0  0  0  0  0  0
    5.0452   -1.0284    0.1431 H   0  0  0  0  0  0  0  0  0  0  0  0
    3.6461   -2.0423   -1.5997 H   0  0  0  0  0  0  0  0  0  0  0  0
    3.9650   -0.6937   -2.6984 H   0  0  0  0  0  0  0  0  0  0  0  0
    5.2763   -1.7971   -2.2420 H   0  0  0  0  0  0  0  0  0  0  0  0
    0.3619   -2.3070    0.2659 H   0  0  0  0  0  0  0  0  0  0  0  0
   -0.8079   -2.0783   -1.0883 H   0  0  0  0  0  0  0  0  0  0  0  0
   -0.1481    2.1984   -0.0560 H   0  0  0  0  0  0  0  0  0  0  0  0
   -1.0003    3.4403   -1.0110 H   0  0  0  0  0  0  0  0  0  0  0  0
   -2.0313    2.1088    1.5525 H   0  0  0  0  0  0  0  0  0  0  0  0
   -1.4392    3.7726    1.4075 H   0  0  0  0  0  0  0  0  0  0  0  0
   -2.9348    3.2875    0.5907 H   0  0  0  0  0  0  0  0  0  0  0  0
   -5.6488    0.5220    0.6428 H   0  0  0  0  0  0  0  0  0  0  0  0
   -5.2281   -0.4856   -0.7745 H   0  0  0  0  0  0  0  0  0  0  0  0
   -4.1569   -0.9731    2.0487 H   0  0  0  0  0  0  0  0  0  0  0  0
   -5.5148   -1.8509    1.3213 H   0  0  0  0  0  0  0  0  0  0  0  0
   -3.8963   -1.9915    0.6247 H   0  0  0  0  0  0  0  0  0  0  0  0
  1  2  1  0  0  0  0
  2  3  1  0  0  0  0
  3  4  2  0  0  0  0
  4  5  2  0  0  0  0
  4  6  2  0  0  0  0
  6  7  1  0  0  0  0
  7  8  1  0  0  0  0
  4  9  1  0  0  0  0
  9 10  1  0  0  0  0
 10 11  1  0  0  0  0
 11 12  1  0  0  0  0
 12 13  2  0  0  0  0
 12 14  2  0  0  0  0
 14 15  1  0  0  0  0
 15 16  1  0  0  0  0
 12 17  2  0  0  0  0
 17 18  1  0  0  0  0
 18 19  1  0  0  0  0
  1 20  1  0  0  0  0
  1 21  1  0  0  0  0
  1 22  1  0  0  0  0
  2 23  1  0  0  0  0
  2 24  1  0  0  0  0
  7 25  1  0  0  0  0
  7 26  1  0  0  0  0
  8 27  1  0  0  0  0
  8 28  1  0  0  0  0
  8 29  1  0  0  0  0
 10 30  1  0  0  0  0
 10 31  1  0  0  0  0
 15 32  1  0  0  0  0
 15 33  1  0  0  0  0
 16 34  1  0  0  0  0
 16 35  1  0  0  0  0
 16 36  1  0  0  0  0
 18 37  1  0  0  0  0
 18 38  1  0  0  0  0
 19 39  1  0  0  0  0
 19 40  1  0  0  0  0
 19 41  1  0  0  0  0
M  END
