 xtb: 6.7.1 (edcfbbe)
          04092505203D

 41 40  0     0  0            999 V2000
    3.7626   -0.7238   -2.7266 C   0  0  0  0  0  0  0  0  0  0  0  0
    4.2537    0.3938   -1.8290 C   0  0  0  0  0  0  0  0  0  0  0  0
    3.7395    0.2955   -0.4902 O   0  0  0  0  0  0  0  0  0  0  0  0
    2.1896    0.4312   -0.1268 P   0  0  0  0  0  0  0  0  0  0  0  0
    1.2421    1.8081   -1.1372 S   0  0  0  0  0  0  0  0  0  0  0  0
    2.2839    0.7403    1.4103 O   0  0  0  0  0  0  0  0  0  0  0  0
    2.9256   -0.1471    2.3611 C   0  0  0  0  0  0  0  0  0  0  0  0
    2.4625    0.2547    3.7449 C   0  0  0  0  0  0  0  0  0  0  0  0
    1.4460   -1.5626   -0.2890 S   0  0  0  0  0  0  0  0  0  0  0  0
    0.1063   -1.3174   -1.4985 C   0  0  0  0  0  0  0  0  0  0  0  0
   -1.5244   -1.8080   -0.8823 S   0  0  0  0  0  0  0  0  0  0  0  0
   -2.0027   -0.1559    0.3250 P   0  0  0  0  0  0  0  0  0  0  0  0
   -0.8565    0.3364    1.8287 S   0  0  0  0  0  0  0  0  0  0  0  0
   -3.4579   -0.4850    0.8582 O   0  0  0  0  0  0  0  0  0  0  0  0
   -4.5621   -0.8413   -0.0107 C   0  0  0  0  0  0  0  0  0  0  0  0
   -4.8210   -2.3333    0.0445 C   0  0  0  0  0  0  0  0  0  0  0  0
   -2.1438    0.9467   -0.8286 O   0  0  0  0  0  0  0  0  0  0  0  0
   -2.1433    2.3539   -0.5374 C   0  0  0  0  0  0  0  0  0  0  0  0
   -3.4546    2.7954    0.0786 C   0  0  0  0  0  0  0  0  0  0  0  0
    4.2933   -0.6794   -3.6722 H   0  0  0  0  0  0  0  0  0  0  0  0
    3.9365   -1.6897   -2.2593 H   0  0  0  0  0  0  0  0  0  0  0  0
    2.6967   -0.6058   -2.9162 H   0  0  0  0  0  0  0  0  0  0  0  0
    3.9663    1.3683   -2.2358 H   0  0  0  0  0  0  0  0  0  0  0  0
    5.3353    0.3540   -1.6916 H   0  0  0  0  0  0  0  0  0  0  0  0
    2.6339   -1.1756    2.1283 H   0  0  0  0  0  0  0  0  0  0  0  0
    4.0056   -0.0386    2.2423 H   0  0  0  0  0  0  0  0  0  0  0  0
    1.3784    0.1864    3.8015 H   0  0  0  0  0  0  0  0  0  0  0  0
    2.9068   -0.4098    4.4786 H   0  0  0  0  0  0  0  0  0  0  0  0
    2.7559    1.2791    3.9546 H   0  0  0  0  0  0  0  0  0  0  0  0
    0.3002   -1.9717   -2.3445 H   0  0  0  0  0  0  0  0  0  0  0  0
    0.0860   -0.2653   -1.7964 H   0  0  0  0  0  0  0  0  0  0  0  0
   -5.4117   -0.2792    0.3814 H   0  0  0  0  0  0  0  0  0  0  0  0
   -4.3376   -0.5130   -1.0285 H   0  0  0  0  0  0  0  0  0  0  0  0
   -3.9716   -2.8825   -0.3558 H   0  0  0  0  0  0  0  0  0  0  0  0
   -4.9855   -2.6425    1.0729 H   0  0  0  0  0  0  0  0  0  0  0  0
   -5.7032   -2.5616   -0.5450 H   0  0  0  0  0  0  0  0  0  0  0  0
   -1.3047    2.5734    0.1319 H   0  0  0  0  0  0  0  0  0  0  0  0
   -1.9594    2.8262   -1.5037 H   0  0  0  0  0  0  0  0  0  0  0  0
   -3.4333    3.8701    0.2294 H   0  0  0  0  0  0  0  0  0  0  0  0
   -4.2842    2.5394   -0.5753 H   0  0  0  0  0  0  0  0  0  0  0  0
   -3.5928    2.3059    1.0424 H   0  0  0  0  0  0  0  0  0  0  0  0
  1  2  1  0  0  0  0
  2  3  1  0  0  0  0
  3  4  2  0  0  0  0
  4  5  2  0  0  0  0
  4  6  2  0  0  0  0
  6  7  1  0  0  0  0
  7  8  1  0  0  0  0
  4  9  1  0  0  0  0
  9 10  1  0  0  0  0
 10 11  1  0  0  0  0
 11 12  1  0  0  0  0
 12 13  2  0  0  0  0
 12 14  2  0  0  0  0
 14 15  1  0  0  0  0
 15 16  1  0  0  0  0
 12 17  1  0  0  0  0
 17 18  1  0  0  0  0
 18 19  1  0  0  0  0
  1 20  1  0  0  0  0
  1 21  1  0  0  0  0
  1 22  1  0  0  0  0
  2 23  1  0  0  0  0
  2 24  1  0  0  0  0
  7 25  1  0  0  0  0
  7 26  1  0  0  0  0
  8 27  1  0  0  0  0
  8 28  1  0  0  0  0
  8 29  1  0  0  0  0
 10 30  1  0  0  0  0
 10 31  1  0  0  0  0
 15 32  1  0  0  0  0
 15 33  1  0  0  0  0
 16 34  1  0  0  0  0
 16 35  1  0  0  0  0
 16 36  1  0  0  0  0
 18 37  1  0  0  0  0
 18 38  1  0  0  0  0
 19 39  1  0  0  0  0
 19 40  1  0  0  0  0
 19 41  1  0  0  0  0
M  END
