 xtb: 6.7.1 (edcfbbe)
          04092505213D

 41 40  0     0  0            999 V2000
    4.3561   -0.1094   -2.3086 C   0  0  0  0  0  0  0  0  0  0  0  0
    4.5110    0.6214   -0.9906 C   0  0  0  0  0  0  0  0  0  0  0  0
    3.8103   -0.0343    0.0796 O   0  0  0  0  0  0  0  0  0  0  0  0
    2.2258   -0.1426    0.1301 P   0  0  0  0  0  0  0  0  0  0  0  0
    1.2777    1.4891   -0.4379 S   0  0  0  0  0  0  0  0  0  0  0  0
    1.9720   -0.5937    1.6260 O   0  0  0  0  0  0  0  0  0  0  0  0
    1.8175    0.3469    2.7066 C   0  0  0  0  0  0  0  0  0  0  0  0
    3.1429    0.9526    3.1195 C   0  0  0  0  0  0  0  0  0  0  0  0
    1.8077   -1.9606   -0.8395 S   0  0  0  0  0  0  0  0  0  0  0  0
    0.0504   -1.7051   -1.1966 C   0  0  0  0  0  0  0  0  0  0  0  0
   -0.9498   -1.3972    0.2903 S   0  0  0  0  0  0  0  0  0  0  0  0
   -2.0670    0.3158   -0.3548 P   0  0  0  0  0  0  0  0  0  0  0  0
   -1.8421    0.8422   -2.2226 S   0  0  0  0  0  0  0  0  0  0  0  0
   -1.7940    1.4702    0.6752 O   0  0  0  0  0  0  0  0  0  0  0  0
   -1.9522    1.3254    2.1095 C   0  0  0  0  0  0  0  0  0  0  0  0
   -3.3317    1.7625    2.5563 C   0  0  0  0  0  0  0  0  0  0  0  0
   -3.5525   -0.1136    0.0264 O   0  0  0  0  0  0  0  0  0  0  0  0
   -4.2445   -1.1305   -0.7242 C   0  0  0  0  0  0  0  0  0  0  0  0
   -5.7134   -1.0613   -0.3582 C   0  0  0  0  0  0  0  0  0  0  0  0
    4.6223   -1.1571   -2.1937 H   0  0  0  0  0  0  0  0  0  0  0  0
    3.3234   -0.0452   -2.6506 H   0  0  0  0  0  0  0  0  0  0  0  0
    5.0000    0.3490   -3.0525 H   0  0  0  0  0  0  0  0  0  0  0  0
    4.1336    1.6458   -1.0737 H   0  0  0  0  0  0  0  0  0  0  0  0
    5.5489    0.6324   -0.6549 H   0  0  0  0  0  0  0  0  0  0  0  0
    1.1189    1.1275    2.3865 H   0  0  0  0  0  0  0  0  0  0  0  0
    1.3740   -0.2450    3.5085 H   0  0  0  0  0  0  0  0  0  0  0  0
    3.8628    0.1663    3.3295 H   0  0  0  0  0  0  0  0  0  0  0  0
    3.5315    1.5801    2.3191 H   0  0  0  0  0  0  0  0  0  0  0  0
    2.9990    1.5598    4.0078 H   0  0  0  0  0  0  0  0  0  0  0  0
   -0.2897   -2.6279   -1.6601 H   0  0  0  0  0  0  0  0  0  0  0  0
   -0.0792   -0.8556   -1.8741 H   0  0  0  0  0  0  0  0  0  0  0  0
   -1.7536    0.2848    2.3832 H   0  0  0  0  0  0  0  0  0  0  0  0
   -1.1793    1.9735    2.5283 H   0  0  0  0  0  0  0  0  0  0  0  0
   -4.0912    1.1116    2.1329 H   0  0  0  0  0  0  0  0  0  0  0  0
   -3.3807    1.7173    3.6398 H   0  0  0  0  0  0  0  0  0  0  0  0
   -3.5209    2.7813    2.2295 H   0  0  0  0  0  0  0  0  0  0  0  0
   -4.0867   -0.9420   -1.7913 H   0  0  0  0  0  0  0  0  0  0  0  0
   -3.8123   -2.1005   -0.4625 H   0  0  0  0  0  0  0  0  0  0  0  0
   -6.2546   -1.8170   -0.9177 H   0  0  0  0  0  0  0  0  0  0  0  0
   -5.8421   -1.2407    0.7052 H   0  0  0  0  0  0  0  0  0  0  0  0
   -6.1120   -0.0808   -0.6027 H   0  0  0  0  0  0  0  0  0  0  0  0
  1  2  1  0  0  0  0
  2  3  1  0  0  0  0
  3  4  2  0  0  0  0
  4  5  2  0  0  0  0
  4  6  2  0  0  0  0
  6  7  1  0  0  0  0
  7  8  1  0  0  0  0
  4  9  1  0  0  0  0
  9 10  1  0  0  0  0
 10 11  1  0  0  0  0
 11 12  1  0  0  0  0
 12 13  2  0  0  0  0
 12 14  2  0  0  0  0
 14 15  1  0  0  0  0
 15 16  1  0  0  0  0
 12 17  2  0  0  0  0
 17 18  1  0  0  0  0
 18 19  1  0  0  0  0
  1 20  1  0  0  0  0
  1 21  1  0  0  0  0
  1 22  1  0  0  0  0
  2 23  1  0  0  0  0
  2 24  1  0  0  0  0
  7 25  1  0  0  0  0
  7 26  1  0  0  0  0
  8 27  1  0  0  0  0
  8 28  1  0  0  0  0
  8 29  1  0  0  0  0
 10 30  1  0  0  0  0
 10 31  1  0  0  0  0
 15 32  1  0  0  0  0
 15 33  1  0  0  0  0
 16 34  1  0  0  0  0
 16 35  1  0  0  0  0
 16 36  1  0  0  0  0
 18 37  1  0  0  0  0
 18 38  1  0  0  0  0
 19 39  1  0  0  0  0
 19 40  1  0  0  0  0
 19 41  1  0  0  0  0
M  END
