 xtb: 6.7.1 (edcfbbe)
          04092505213D

 41 40  0     0  0            999 V2000
    5.3378   -1.4006    0.1650 C   0  0  0  0  0  0  0  0  0  0  0  0
    4.5939   -1.4595   -1.1543 C   0  0  0  0  0  0  0  0  0  0  0  0
    3.1670   -1.4401   -0.9506 O   0  0  0  0  0  0  0  0  0  0  0  0
    2.3888   -0.1012   -0.5692 P   0  0  0  0  0  0  0  0  0  0  0  0
    3.2219    1.5904   -1.0698 S   0  0  0  0  0  0  0  0  0  0  0  0
    2.1215   -0.1515    0.9954 O   0  0  0  0  0  0  0  0  0  0  0  0
    1.6154   -1.3321    1.6625 C   0  0  0  0  0  0  0  0  0  0  0  0
    0.8765   -0.8887    2.9082 C   0  0  0  0  0  0  0  0  0  0  0  0
    0.5580   -0.5897   -1.5159 S   0  0  0  0  0  0  0  0  0  0  0  0
   -0.1429    1.0780   -1.4064 C   0  0  0  0  0  0  0  0  0  0  0  0
   -0.6540    1.5267    0.2725 S   0  0  0  0  0  0  0  0  0  0  0  0
   -2.3995    0.3419    0.2852 P   0  0  0  0  0  0  0  0  0  0  0  0
   -3.4877    0.3392   -1.3516 S   0  0  0  0  0  0  0  0  0  0  0  0
   -3.1840    0.7592    1.6038 O   0  0  0  0  0  0  0  0  0  0  0  0
   -4.1718    1.8047    1.6161 C   0  0  0  0  0  0  0  0  0  0  0  0
   -3.5559    3.1697    1.3870 C   0  0  0  0  0  0  0  0  0  0  0  0
   -1.7912   -1.0550    0.7113 O   0  0  0  0  0  0  0  0  0  0  0  0
   -2.5327   -2.2888    0.5608 C   0  0  0  0  0  0  0  0  0  0  0  0
   -1.5520   -3.4106    0.2872 C   0  0  0  0  0  0  0  0  0  0  0  0
    5.0589   -2.2398    0.7968 H   0  0  0  0  0  0  0  0  0  0  0  0
    6.4065   -1.4330   -0.0220 H   0  0  0  0  0  0  0  0  0  0  0  0
    5.0969   -0.4704    0.6800 H   0  0  0  0  0  0  0  0  0  0  0  0
    4.7754   -2.3952   -1.6844 H   0  0  0  0  0  0  0  0  0  0  0  0
    4.8689   -0.6118   -1.7892 H   0  0  0  0  0  0  0  0  0  0  0  0
    0.9564   -1.8703    0.9746 H   0  0  0  0  0  0  0  0  0  0  0  0
    2.4718   -1.9632    1.9098 H   0  0  0  0  0  0  0  0  0  0  0  0
    1.5257   -0.2716    3.5228 H   0  0  0  0  0  0  0  0  0  0  0  0
   -0.0035   -0.3091    2.6399 H   0  0  0  0  0  0  0  0  0  0  0  0
    0.5691   -1.7637    3.4719 H   0  0  0  0  0  0  0  0  0  0  0  0
   -1.0112    1.1025   -2.0658 H   0  0  0  0  0  0  0  0  0  0  0  0
    0.6096    1.8047   -1.7140 H   0  0  0  0  0  0  0  0  0  0  0  0
   -4.9169    1.5843    0.8450 H   0  0  0  0  0  0  0  0  0  0  0  0
   -4.6245    1.7262    2.6053 H   0  0  0  0  0  0  0  0  0  0  0  0
   -4.3141    3.9345    1.5204 H   0  0  0  0  0  0  0  0  0  0  0  0
   -2.7423    3.3402    2.0876 H   0  0  0  0  0  0  0  0  0  0  0  0
   -3.1629    3.2354    0.3730 H   0  0  0  0  0  0  0  0  0  0  0  0
   -3.0867   -2.4551    1.4870 H   0  0  0  0  0  0  0  0  0  0  0  0
   -3.2398   -2.1720   -0.2677 H   0  0  0  0  0  0  0  0  0  0  0  0
   -0.8723   -3.5289    1.1261 H   0  0  0  0  0  0  0  0  0  0  0  0
   -2.1039   -4.3335    0.1416 H   0  0  0  0  0  0  0  0  0  0  0  0
   -0.9781   -3.1929   -0.6107 H   0  0  0  0  0  0  0  0  0  0  0  0
  1  2  1  0  0  0  0
  2  3  1  0  0  0  0
  3  4  1  0  0  0  0
  4  5  2  0  0  0  0
  4  6  2  0  0  0  0
  6  7  1  0  0  0  0
  7  8  1  0  0  0  0
  4  9  1  0  0  0  0
  9 10  1  0  0  0  0
 10 11  1  0  0  0  0
 11 12  1  0  0  0  0
 12 13  2  0  0  0  0
 12 14  2  0  0  0  0
 14 15  1  0  0  0  0
 15 16  1  0  0  0  0
 12 17  2  0  0  0  0
 17 18  1  0  0  0  0
 18 19  1  0  0  0  0
  1 20  1  0  0  0  0
  1 21  1  0  0  0  0
  1 22  1  0  0  0  0
  2 23  1  0  0  0  0
  2 24  1  0  0  0  0
  7 25  1  0  0  0  0
  7 26  1  0  0  0  0
  8 27  1  0  0  0  0
  8 28  1  0  0  0  0
  8 29  1  0  0  0  0
 10 30  1  0  0  0  0
 10 31  1  0  0  0  0
 15 32  1  0  0  0  0
 15 33  1  0  0  0  0
 16 34  1  0  0  0  0
 16 35  1  0  0  0  0
 16 36  1  0  0  0  0
 18 37  1  0  0  0  0
 18 38  1  0  0  0  0
 19 39  1  0  0  0  0
 19 40  1  0  0  0  0
 19 41  1  0  0  0  0
M  END
