 xtb: 6.7.1 (edcfbbe)
          04092505213D

 41 40  0     0  0            999 V2000
    2.3853    0.9428   -2.7902 C   0  0  0  0  0  0  0  0  0  0  0  0
    1.7684    1.3771   -1.4758 C   0  0  0  0  0  0  0  0  0  0  0  0
    1.7539    0.2513   -0.5838 O   0  0  0  0  0  0  0  0  0  0  0  0
    2.2169    0.3115    0.9412 P   0  0  0  0  0  0  0  0  0  0  0  0
    3.5198    1.7243    1.3140 S   0  0  0  0  0  0  0  0  0  0  0  0
    2.6735   -1.1817    1.2222 O   0  0  0  0  0  0  0  0  0  0  0  0
    3.8781   -1.7154    0.6250 C   0  0  0  0  0  0  0  0  0  0  0  0
    3.5479   -2.5303   -0.6093 C   0  0  0  0  0  0  0  0  0  0  0  0
    0.4773    0.3102    2.1082 S   0  0  0  0  0  0  0  0  0  0  0  0
   -0.2966   -1.2378    1.4818 C   0  0  0  0  0  0  0  0  0  0  0  0
   -2.0687   -1.0462    1.2423 S   0  0  0  0  0  0  0  0  0  0  0  0
   -1.9434   -0.1373   -0.6864 P   0  0  0  0  0  0  0  0  0  0  0  0
   -0.8473   -1.0724   -2.0047 S   0  0  0  0  0  0  0  0  0  0  0  0
   -1.4096    1.3254   -0.4064 O   0  0  0  0  0  0  0  0  0  0  0  0
   -2.0717    2.2606    0.4808 C   0  0  0  0  0  0  0  0  0  0  0  0
   -2.9614    3.2046   -0.3004 C   0  0  0  0  0  0  0  0  0  0  0  0
   -3.4587    0.1103   -1.0905 O   0  0  0  0  0  0  0  0  0  0  0  0
   -4.2494   -0.8855   -1.7654 C   0  0  0  0  0  0  0  0  0  0  0  0
   -4.4964   -2.1060   -0.9033 C   0  0  0  0  0  0  0  0  0  0  0  0
    1.8202    0.1097   -3.2018 H   0  0  0  0  0  0  0  0  0  0  0  0
    2.3565    1.7741   -3.4869 H   0  0  0  0  0  0  0  0  0  0  0  0
    3.4175    0.6372   -2.6395 H   0  0  0  0  0  0  0  0  0  0  0  0
    0.7316    1.6930   -1.6128 H   0  0  0  0  0  0  0  0  0  0  0  0
    2.3422    2.1869   -1.0122 H   0  0  0  0  0  0  0  0  0  0  0  0
    4.5534   -0.8855    0.3920 H   0  0  0  0  0  0  0  0  0  0  0  0
    4.3229   -2.3352    1.4058 H   0  0  0  0  0  0  0  0  0  0  0  0
    4.4666   -2.9248   -1.0318 H   0  0  0  0  0  0  0  0  0  0  0  0
    2.8907   -3.3551   -0.3476 H   0  0  0  0  0  0  0  0  0  0  0  0
    3.0486   -1.9126   -1.3521 H   0  0  0  0  0  0  0  0  0  0  0  0
   -0.1523   -2.0131    2.2285 H   0  0  0  0  0  0  0  0  0  0  0  0
    0.1673   -1.5023    0.5307 H   0  0  0  0  0  0  0  0  0  0  0  0
   -2.6438    1.6998    1.2249 H   0  0  0  0  0  0  0  0  0  0  0  0
   -1.2570    2.7927    0.9775 H   0  0  0  0  0  0  0  0  0  0  0  0
   -3.7624    2.6529   -0.7849 H   0  0  0  0  0  0  0  0  0  0  0  0
   -3.3886    3.9315    0.3833 H   0  0  0  0  0  0  0  0  0  0  0  0
   -2.3824    3.7246   -1.0588 H   0  0  0  0  0  0  0  0  0  0  0  0
   -5.1783   -0.3638   -2.0001 H   0  0  0  0  0  0  0  0  0  0  0  0
   -3.7355   -1.1642   -2.6903 H   0  0  0  0  0  0  0  0  0  0  0  0
   -3.5662   -2.6506   -0.7502 H   0  0  0  0  0  0  0  0  0  0  0  0
   -4.8934   -1.8123    0.0652 H   0  0  0  0  0  0  0  0  0  0  0  0
   -5.2068   -2.7577   -1.4018 H   0  0  0  0  0  0  0  0  0  0  0  0
  1  2  1  0  0  0  0
  2  3  1  0  0  0  0
  3  4  2  0  0  0  0
  4  5  2  0  0  0  0
  4  6  2  0  0  0  0
  6  7  1  0  0  0  0
  7  8  1  0  0  0  0
  4  9  1  0  0  0  0
  9 10  1  0  0  0  0
 10 11  1  0  0  0  0
 11 12  1  0  0  0  0
 12 13  2  0  0  0  0
 12 14  2  0  0  0  0
 14 15  1  0  0  0  0
 15 16  1  0  0  0  0
 12 17  2  0  0  0  0
 17 18  1  0  0  0  0
 18 19  1  0  0  0  0
  1 20  1  0  0  0  0
  1 21  1  0  0  0  0
  1 22  1  0  0  0  0
  2 23  1  0  0  0  0
  2 24  1  0  0  0  0
  7 25  1  0  0  0  0
  7 26  1  0  0  0  0
  8 27  1  0  0  0  0
  8 28  1  0  0  0  0
  8 29  1  0  0  0  0
 10 30  1  0  0  0  0
 10 31  1  0  0  0  0
 15 32  1  0  0  0  0
 15 33  1  0  0  0  0
 16 34  1  0  0  0  0
 16 35  1  0  0  0  0
 16 36  1  0  0  0  0
 18 37  1  0  0  0  0
 18 38  1  0  0  0  0
 19 39  1  0  0  0  0
 19 40  1  0  0  0  0
 19 41  1  0  0  0  0
M  END
