 xtb: 6.7.1 (edcfbbe)
          04092505213D

 41 40  0     0  0            999 V2000
    4.2569    0.0034   -2.6552 C   0  0  0  0  0  0  0  0  0  0  0  0
    2.7875   -0.1211   -2.3092 C   0  0  0  0  0  0  0  0  0  0  0  0
    2.4553    0.7343   -1.1902 O   0  0  0  0  0  0  0  0  0  0  0  0
    2.2620    0.2184    0.2814 P   0  0  0  0  0  0  0  0  0  0  0  0
    1.6972    1.6729    1.4577 S   0  0  0  0  0  0  0  0  0  0  0  0
    3.6988   -0.4190    0.5602 O   0  0  0  0  0  0  0  0  0  0  0  0
    4.0209   -1.3237    1.6317 C   0  0  0  0  0  0  0  0  0  0  0  0
    3.7904   -0.7203    3.0019 C   0  0  0  0  0  0  0  0  0  0  0  0
    1.0126   -1.5118    0.2306 S   0  0  0  0  0  0  0  0  0  0  0  0
   -0.2772   -0.9890    1.4080 C   0  0  0  0  0  0  0  0  0  0  0  0
   -1.9569   -1.3173    0.8361 S   0  0  0  0  0  0  0  0  0  0  0  0
   -2.2322    0.1695   -0.6668 P   0  0  0  0  0  0  0  0  0  0  0  0
   -0.6489    1.1217   -1.3261 S   0  0  0  0  0  0  0  0  0  0  0  0
   -3.4116    1.0855   -0.1106 O   0  0  0  0  0  0  0  0  0  0  0  0
   -3.4373    1.7117    1.1817 C   0  0  0  0  0  0  0  0  0  0  0  0
   -2.3797    2.7863    1.3383 C   0  0  0  0  0  0  0  0  0  0  0  0
   -2.9204   -0.5615   -1.8747 O   0  0  0  0  0  0  0  0  0  0  0  0
   -3.8697   -1.6572   -1.8109 C   0  0  0  0  0  0  0  0  0  0  0  0
   -5.0358   -1.3904   -0.8846 C   0  0  0  0  0  0  0  0  0  0  0  0
    4.4993    1.0408   -2.8685 H   0  0  0  0  0  0  0  0  0  0  0  0
    4.8687   -0.3353   -1.8232 H   0  0  0  0  0  0  0  0  0  0  0  0
    4.4678   -0.6032   -3.5302 H   0  0  0  0  0  0  0  0  0  0  0  0
    2.5217   -1.1535   -2.0621 H   0  0  0  0  0  0  0  0  0  0  0  0
    2.1484    0.2319   -3.1217 H   0  0  0  0  0  0  0  0  0  0  0  0
    3.4278   -2.2339    1.5023 H   0  0  0  0  0  0  0  0  0  0  0  0
    5.0772   -1.5455    1.4693 H   0  0  0  0  0  0  0  0  0  0  0  0
    4.1306   -1.4161    3.7620 H   0  0  0  0  0  0  0  0  0  0  0  0
    4.3352    0.2156    3.0991 H   0  0  0  0  0  0  0  0  0  0  0  0
    2.7322   -0.5139    3.1528 H   0  0  0  0  0  0  0  0  0  0  0  0
   -0.1347    0.0761    1.6116 H   0  0  0  0  0  0  0  0  0  0  0  0
   -0.1708   -1.5812    2.3140 H   0  0  0  0  0  0  0  0  0  0  0  0
   -4.4398    2.1394    1.2400 H   0  0  0  0  0  0  0  0  0  0  0  0
   -3.3215    0.9372    1.9464 H   0  0  0  0  0  0  0  0  0  0  0  0
   -1.3769    2.3615    1.3030 H   0  0  0  0  0  0  0  0  0  0  0  0
   -2.4620    3.5171    0.5373 H   0  0  0  0  0  0  0  0  0  0  0  0
   -2.5097    3.2852    2.2934 H   0  0  0  0  0  0  0  0  0  0  0  0
   -4.1946   -1.7593   -2.8474 H   0  0  0  0  0  0  0  0  0  0  0  0
   -3.3250   -2.5529   -1.5026 H   0  0  0  0  0  0  0  0  0  0  0  0
   -4.6966   -1.3461    0.1487 H   0  0  0  0  0  0  0  0  0  0  0  0
   -5.5155   -0.4500   -1.1430 H   0  0  0  0  0  0  0  0  0  0  0  0
   -5.7536   -2.1989   -0.9832 H   0  0  0  0  0  0  0  0  0  0  0  0
  1  2  1  0  0  0  0
  2  3  1  0  0  0  0
  3  4  2  0  0  0  0
  4  5  2  0  0  0  0
  4  6  2  0  0  0  0
  6  7  1  0  0  0  0
  7  8  1  0  0  0  0
  4  9  1  0  0  0  0
  9 10  1  0  0  0  0
 10 11  1  0  0  0  0
 11 12  1  0  0  0  0
 12 13  2  0  0  0  0
 12 14  2  0  0  0  0
 14 15  1  0  0  0  0
 15 16  1  0  0  0  0
 12 17  2  0  0  0  0
 17 18  1  0  0  0  0
 18 19  1  0  0  0  0
  1 20  1  0  0  0  0
  1 21  1  0  0  0  0
  1 22  1  0  0  0  0
  2 23  1  0  0  0  0
  2 24  1  0  0  0  0
  7 25  1  0  0  0  0
  7 26  1  0  0  0  0
  8 27  1  0  0  0  0
  8 28  1  0  0  0  0
  8 29  1  0  0  0  0
 10 30  1  0  0  0  0
 10 31  1  0  0  0  0
 15 32  1  0  0  0  0
 15 33  1  0  0  0  0
 16 34  1  0  0  0  0
 16 35  1  0  0  0  0
 16 36  1  0  0  0  0
 18 37  1  0  0  0  0
 18 38  1  0  0  0  0
 19 39  1  0  0  0  0
 19 40  1  0  0  0  0
 19 41  1  0  0  0  0
M  END
