 xtb: 6.7.1 (edcfbbe)
          04092505203D

 41 40  0     0  0            999 V2000
    0.0586   -1.5876    2.9361 C   0  0  0  0  0  0  0  0  0  0  0  0
    1.3853   -1.5370    2.2076 C   0  0  0  0  0  0  0  0  0  0  0  0
    1.5053   -0.2568    1.5472 O   0  0  0  0  0  0  0  0  0  0  0  0
    2.3157   -0.0238    0.2102 P   0  0  0  0  0  0  0  0  0  0  0  0
    3.1064   -1.6368   -0.5846 S   0  0  0  0  0  0  0  0  0  0  0  0
    3.2937    1.1078    0.7371 O   0  0  0  0  0  0  0  0  0  0  0  0
    4.1588    1.8904   -0.1091 C   0  0  0  0  0  0  0  0  0  0  0  0
    5.4467    1.1559   -0.4276 C   0  0  0  0  0  0  0  0  0  0  0  0
    1.0223    1.0712   -1.0690 S   0  0  0  0  0  0  0  0  0  0  0  0
    0.3062   -0.3629   -1.9138 C   0  0  0  0  0  0  0  0  0  0  0  0
   -0.6218   -1.4369   -0.7902 S   0  0  0  0  0  0  0  0  0  0  0  0
   -2.0747    0.0079   -0.2381 P   0  0  0  0  0  0  0  0  0  0  0  0
   -2.6815    1.1794   -1.6932 S   0  0  0  0  0  0  0  0  0  0  0  0
   -1.4040    0.7249    0.9995 O   0  0  0  0  0  0  0  0  0  0  0  0
   -1.5858    2.1251    1.2784 C   0  0  0  0  0  0  0  0  0  0  0  0
   -2.9525    2.3823    1.8766 C   0  0  0  0  0  0  0  0  0  0  0  0
   -3.1625   -0.8743    0.5087 O   0  0  0  0  0  0  0  0  0  0  0  0
   -4.0104   -1.8209   -0.1729 C   0  0  0  0  0  0  0  0  0  0  0  0
   -5.2956   -1.1673   -0.6428 C   0  0  0  0  0  0  0  0  0  0  0  0
   -0.0185   -2.5347    3.4600 H   0  0  0  0  0  0  0  0  0  0  0  0
   -0.0041   -0.7717    3.6502 H   0  0  0  0  0  0  0  0  0  0  0  0
   -0.7663   -1.4998    2.2332 H   0  0  0  0  0  0  0  0  0  0  0  0
    1.4643   -2.3335    1.4600 H   0  0  0  0  0  0  0  0  0  0  0  0
    2.2218   -1.6206    2.9055 H   0  0  0  0  0  0  0  0  0  0  0  0
    3.6200    2.1573   -1.0232 H   0  0  0  0  0  0  0  0  0  0  0  0
    4.3515    2.7919    0.4758 H   0  0  0  0  0  0  0  0  0  0  0  0
    5.2408    0.2583   -1.0064 H   0  0  0  0  0  0  0  0  0  0  0  0
    6.0960    1.8074   -1.0036 H   0  0  0  0  0  0  0  0  0  0  0  0
    5.9497    0.8678    0.4915 H   0  0  0  0  0  0  0  0  0  0  0  0
    1.1023   -0.9721   -2.3415 H   0  0  0  0  0  0  0  0  0  0  0  0
   -0.3588    0.0291   -2.6830 H   0  0  0  0  0  0  0  0  0  0  0  0
   -0.7790    2.3652    1.9724 H   0  0  0  0  0  0  0  0  0  0  0  0
   -1.4529    2.6909    0.3500 H   0  0  0  0  0  0  0  0  0  0  0  0
   -3.7218    2.1212    1.1506 H   0  0  0  0  0  0  0  0  0  0  0  0
   -3.0926    1.7785    2.7690 H   0  0  0  0  0  0  0  0  0  0  0  0
   -3.0458    3.4337    2.1294 H   0  0  0  0  0  0  0  0  0  0  0  0
   -3.4605   -2.2585   -1.0113 H   0  0  0  0  0  0  0  0  0  0  0  0
   -4.2080   -2.5924    0.5736 H   0  0  0  0  0  0  0  0  0  0  0  0
   -5.9312   -1.9182   -1.1008 H   0  0  0  0  0  0  0  0  0  0  0  0
   -5.8170   -0.7203    0.1990 H   0  0  0  0  0  0  0  0  0  0  0  0
   -5.0810   -0.3914   -1.3744 H   0  0  0  0  0  0  0  0  0  0  0  0
  1  2  1  0  0  0  0
  2  3  1  0  0  0  0
  3  4  2  0  0  0  0
  4  5  2  0  0  0  0
  4  6  2  0  0  0  0
  6  7  1  0  0  0  0
  7  8  1  0  0  0  0
  4  9  1  0  0  0  0
  9 10  1  0  0  0  0
 10 11  1  0  0  0  0
 11 12  1  0  0  0  0
 12 13  2  0  0  0  0
 12 14  2  0  0  0  0
 14 15  1  0  0  0  0
 15 16  1  0  0  0  0
 12 17  2  0  0  0  0
 17 18  1  0  0  0  0
 18 19  1  0  0  0  0
  1 20  1  0  0  0  0
  1 21  1  0  0  0  0
  1 22  1  0  0  0  0
  2 23  1  0  0  0  0
  2 24  1  0  0  0  0
  7 25  1  0  0  0  0
  7 26  1  0  0  0  0
  8 27  1  0  0  0  0
  8 28  1  0  0  0  0
  8 29  1  0  0  0  0
 10 30  1  0  0  0  0
 10 31  1  0  0  0  0
 15 32  1  0  0  0  0
 15 33  1  0  0  0  0
 16 34  1  0  0  0  0
 16 35  1  0  0  0  0
 16 36  1  0  0  0  0
 18 37  1  0  0  0  0
 18 38  1  0  0  0  0
 19 39  1  0  0  0  0
 19 40  1  0  0  0  0
 19 41  1  0  0  0  0
M  END
