 xtb: 6.7.1 (edcfbbe)
          04092505213D

 41 40  0     0  0            999 V2000
    3.7572   -2.0054    1.7444 C   0  0  0  0  0  0  0  0  0  0  0  0
    2.3583   -2.0692    1.1665 C   0  0  0  0  0  0  0  0  0  0  0  0
    1.8612   -0.7510    0.8626 O   0  0  0  0  0  0  0  0  0  0  0  0
    2.4035    0.0830   -0.3916 P   0  0  0  0  0  0  0  0  0  0  0  0
    3.0396   -0.9905   -1.8936 S   0  0  0  0  0  0  0  0  0  0  0  0
    3.5153    1.0717    0.1470 O   0  0  0  0  0  0  0  0  0  0  0  0
    3.3036    1.9300    1.2979 C   0  0  0  0  0  0  0  0  0  0  0  0
    4.6640    2.3261    1.8330 C   0  0  0  0  0  0  0  0  0  0  0  0
    0.7289    1.3316   -0.7392 S   0  0  0  0  0  0  0  0  0  0  0  0
   -0.2240    0.0915   -1.6543 C   0  0  0  0  0  0  0  0  0  0  0  0
   -1.0573   -1.0961   -0.5844 S   0  0  0  0  0  0  0  0  0  0  0  0
   -2.6972    0.1717   -0.0530 P   0  0  0  0  0  0  0  0  0  0  0  0
   -3.2503    1.4556   -1.4213 S   0  0  0  0  0  0  0  0  0  0  0  0
   -2.3092    0.9477    1.2604 O   0  0  0  0  0  0  0  0  0  0  0  0
   -1.9153    0.3065    2.5012 C   0  0  0  0  0  0  0  0  0  0  0  0
   -0.5333    0.7846    2.8976 C   0  0  0  0  0  0  0  0  0  0  0  0
   -3.7699   -0.8603    0.5045 O   0  0  0  0  0  0  0  0  0  0  0  0
   -4.2175   -2.0506   -0.1714 C   0  0  0  0  0  0  0  0  0  0  0  0
   -4.7340   -1.7736   -1.5674 C   0  0  0  0  0  0  0  0  0  0  0  0
    4.0925   -3.0080    1.9900 H   0  0  0  0  0  0  0  0  0  0  0  0
    4.4371   -1.5765    1.0080 H   0  0  0  0  0  0  0  0  0  0  0  0
    3.7715   -1.3915    2.6413 H   0  0  0  0  0  0  0  0  0  0  0  0
    1.6363   -2.4692    1.8792 H   0  0  0  0  0  0  0  0  0  0  0  0
    2.3443   -2.6661    0.2496 H   0  0  0  0  0  0  0  0  0  0  0  0
    2.7333    2.7998    0.9631 H   0  0  0  0  0  0  0  0  0  0  0  0
    2.7221    1.3831    2.0442 H   0  0  0  0  0  0  0  0  0  0  0  0
    5.2337    2.8328    1.0593 H   0  0  0  0  0  0  0  0  0  0  0  0
    4.5327    2.9937    2.6784 H   0  0  0  0  0  0  0  0  0  0  0  0
    5.2153    1.4456    2.1509 H   0  0  0  0  0  0  0  0  0  0  0  0
    0.4503   -0.4696   -2.3029 H   0  0  0  0  0  0  0  0  0  0  0  0
   -0.9748    0.6349   -2.2311 H   0  0  0  0  0  0  0  0  0  0  0  0
   -2.6663    0.6042    3.2349 H   0  0  0  0  0  0  0  0  0  0  0  0
   -1.9416   -0.7779    2.3706 H   0  0  0  0  0  0  0  0  0  0  0  0
   -0.2884    0.3908    3.8789 H   0  0  0  0  0  0  0  0  0  0  0  0
    0.2054    0.4399    2.1784 H   0  0  0  0  0  0  0  0  0  0  0  0
   -0.5119    1.8705    2.9270 H   0  0  0  0  0  0  0  0  0  0  0  0
   -3.3853   -2.7595   -0.2011 H   0  0  0  0  0  0  0  0  0  0  0  0
   -5.0078   -2.4305    0.4783 H   0  0  0  0  0  0  0  0  0  0  0  0
   -5.5125   -1.0147   -1.5409 H   0  0  0  0  0  0  0  0  0  0  0  0
   -3.9265   -1.4130   -2.2033 H   0  0  0  0  0  0  0  0  0  0  0  0
   -5.1364   -2.6879   -1.9914 H   0  0  0  0  0  0  0  0  0  0  0  0
  1  2  1  0  0  0  0
  2  3  1  0  0  0  0
  3  4  1  0  0  0  0
  4  5  2  0  0  0  0
  4  6  2  0  0  0  0
  6  7  1  0  0  0  0
  7  8  1  0  0  0  0
  4  9  1  0  0  0  0
  9 10  1  0  0  0  0
 10 11  1  0  0  0  0
 11 12  1  0  0  0  0
 12 13  2  0  0  0  0
 12 14  2  0  0  0  0
 14 15  1  0  0  0  0
 15 16  1  0  0  0  0
 12 17  2  0  0  0  0
 17 18  1  0  0  0  0
 18 19  1  0  0  0  0
  1 20  1  0  0  0  0
  1 21  1  0  0  0  0
  1 22  1  0  0  0  0
  2 23  1  0  0  0  0
  2 24  1  0  0  0  0
  7 25  1  0  0  0  0
  7 26  1  0  0  0  0
  8 27  1  0  0  0  0
  8 28  1  0  0  0  0
  8 29  1  0  0  0  0
 10 30  1  0  0  0  0
 10 31  1  0  0  0  0
 15 32  1  0  0  0  0
 15 33  1  0  0  0  0
 16 34  1  0  0  0  0
 16 35  1  0  0  0  0
 16 36  1  0  0  0  0
 18 37  1  0  0  0  0
 18 38  1  0  0  0  0
 19 39  1  0  0  0  0
 19 40  1  0  0  0  0
 19 41  1  0  0  0  0
M  END
