 xtb: 6.7.1 (edcfbbe)
          04032520393D

 22 22  0     0  0            999 V2000
    2.6765    0.1901    0.2479 C   0  0  0  0  0  0  0  0  0  0  0  0
    1.4244   -0.0837   -0.4240 N   0  0  0  0  0  0  0  0  0  0  0  0
    0.5490    1.0817   -0.5338 C   0  0  0  0  0  0  0  0  0  0  0  0
   -0.5490    1.0818    0.5334 C   0  0  0  0  0  0  0  0  0  0  0  0
   -1.4242   -0.0837    0.4241 N   0  0  0  0  0  0  0  0  0  0  0  0
   -0.7363   -1.2152   -0.1891 C   0  0  0  0  0  0  0  0  0  0  0  0
    0.7364   -1.2153    0.1888 C   0  0  0  0  0  0  0  0  0  0  0  0
   -2.6766    0.1901   -0.2473 C   0  0  0  0  0  0  0  0  0  0  0  0
    3.2040    0.9775   -0.2869 H   0  0  0  0  0  0  0  0  0  0  0  0
    3.2846   -0.7131    0.2257 H   0  0  0  0  0  0  0  0  0  0  0  0
    2.5466    0.4953    1.2984 H   0  0  0  0  0  0  0  0  0  0  0  0
    1.1449    1.9921   -0.4601 H   0  0  0  0  0  0  0  0  0  0  0  0
    0.0837    1.0653   -1.5269 H   0  0  0  0  0  0  0  0  0  0  0  0
   -0.0838    1.0661    1.5266 H   0  0  0  0  0  0  0  0  0  0  0  0
   -1.1450    1.9921    0.4592 H   0  0  0  0  0  0  0  0  0  0  0  0
   -1.2122   -2.1325    0.1702 H   0  0  0  0  0  0  0  0  0  0  0  0
   -0.8179   -1.1966   -1.2886 H   0  0  0  0  0  0  0  0  0  0  0  0
    0.8179   -1.1970    1.2884 H   0  0  0  0  0  0  0  0  0  0  0  0
    1.2122   -2.1326   -0.1706 H   0  0  0  0  0  0  0  0  0  0  0  0
   -3.2838   -0.7137   -0.2270 H   0  0  0  0  0  0  0  0  0  0  0  0
   -2.5471    0.4976   -1.2972 H   0  0  0  0  0  0  0  0  0  0  0  0
   -3.2050    0.9759    0.2891 H   0  0  0  0  0  0  0  0  0  0  0  0
  1  2  1  0  0  0  0
  2  3  1  0  0  0  0
  3  4  1  0  0  0  0
  4  5  1  0  0  0  0
  5  6  1  0  0  0  0
  2  7  1  0  0  0  0
  6  7  1  0  0  0  0
  5  8  1  0  0  0  0
  1  9  1  0  0  0  0
  1 10  1  0  0  0  0
  1 11  1  0  0  0  0
  3 12  1  0  0  0  0
  3 13  1  0  0  0  0
  4 14  1  0  0  0  0
  4 15  1  0  0  0  0
  6 16  1  0  0  0  0
  6 17  1  0  0  0  0
  7 18  1  0  0  0  0
  7 19  1  0  0  0  0
  8 20  1  0  0  0  0
  8 21  1  0  0  0  0
  8 22  1  0  0  0  0
M  END
