 xtb: 6.7.1 (edcfbbe)
          04092507313D

 38 37  0     0  0            999 V2000
    4.1980   -2.3477    1.2639 C   0  0  0  0  0  0  0  0  0  0  0  0
    2.8616   -1.6354    1.3206 C   0  0  0  0  0  0  0  0  0  0  0  0
    2.5027   -1.2540   -0.0209 O   0  0  0  0  0  0  0  0  0  0  0  0
    1.5424   -0.3857   -0.1878 C   0  0  0  0  0  0  0  0  0  0  0  0
    0.9625    0.1963    0.7164 O   0  0  0  0  0  0  0  0  0  0  0  0
    1.2548   -0.1035   -1.6447 C   0  0  0  0  0  0  0  0  0  0  0  0
    0.1723    0.9601   -1.7482 C   0  0  0  0  0  0  0  0  0  0  0  0
    0.1589    1.3940   -2.7519 H   0  0  0  0  0  0  0  0  0  0  0  0
    0.3890    2.0890   -0.7459 C   0  0  0  0  0  0  0  0  0  0  0  0
   -0.4967    2.5904   -0.0927 O   0  0  0  0  0  0  0  0  0  0  0  0
    1.6373    2.5101   -0.7871 O   0  0  0  0  0  0  0  0  0  0  0  0
    2.0322    3.5765    0.1005 C   0  0  0  0  0  0  0  0  0  0  0  0
    2.6675    3.0104    1.3598 C   0  0  0  0  0  0  0  0  0  0  0  0
   -1.5276    0.3247   -1.5706 S   0  0  0  0  0  0  0  0  0  0  0  0
   -1.6418   -0.8835    0.1734 P   0  0  0  0  0  0  0  0  0  0  0  0
   -0.5409   -2.5007    0.2838 S   0  0  0  0  0  0  0  0  0  0  0  0
   -1.6502   -0.0373    1.5046 O   0  0  0  0  0  0  0  0  0  0  0  0
   -2.5508    1.0602    1.7512 C   0  0  0  0  0  0  0  0  0  0  0  0
   -3.2009   -1.2425    0.0641 O   0  0  0  0  0  0  0  0  0  0  0  0
   -3.6955   -2.1420   -0.9337 C   0  0  0  0  0  0  0  0  0  0  0  0
    4.9612   -1.6830    0.8704 H   0  0  0  0  0  0  0  0  0  0  0  0
    4.4762   -2.6636    2.2636 H   0  0  0  0  0  0  0  0  0  0  0  0
    4.1210   -3.2185    0.6204 H   0  0  0  0  0  0  0  0  0  0  0  0
    2.8973   -0.7340    1.9408 H   0  0  0  0  0  0  0  0  0  0  0  0
    2.0688   -2.2881    1.7010 H   0  0  0  0  0  0  0  0  0  0  0  0
    0.9557   -1.0297   -2.1387 H   0  0  0  0  0  0  0  0  0  0  0  0
    2.1771    0.2503   -2.1087 H   0  0  0  0  0  0  0  0  0  0  0  0
    2.7442    4.1677   -0.4763 H   0  0  0  0  0  0  0  0  0  0  0  0
    1.1471    4.1712    0.3426 H   0  0  0  0  0  0  0  0  0  0  0  0
    1.9675    2.3385    1.8541 H   0  0  0  0  0  0  0  0  0  0  0  0
    3.5679    2.4551    1.1109 H   0  0  0  0  0  0  0  0  0  0  0  0
    2.9196    3.8215    2.0346 H   0  0  0  0  0  0  0  0  0  0  0  0
   -3.5610    0.7941    1.4471 H   0  0  0  0  0  0  0  0  0  0  0  0
   -2.2026    1.9393    1.2093 H   0  0  0  0  0  0  0  0  0  0  0  0
   -2.4990    1.2280    2.8237 H   0  0  0  0  0  0  0  0  0  0  0  0
   -4.6905   -2.4280   -0.6022 H   0  0  0  0  0  0  0  0  0  0  0  0
   -3.0490   -3.0187   -0.9990 H   0  0  0  0  0  0  0  0  0  0  0  0
   -3.7390   -1.6367   -1.8976 H   0  0  0  0  0  0  0  0  0  0  0  0
  1  2  1  0  0  0  0
  2  3  1  0  0  0  0
  3  4  4  0  0  0  0
  4  5  2  0  0  0  0
  4  6  1  0  0  0  0
  6  7  1  0  0  0  0
  7  8  1  0  0  0  0
  7  9  1  0  0  0  0
  9 10  2  0  0  0  0
  9 11  1  0  0  0  0
 11 12  1  0  0  0  0
 12 13  1  0  0  0  0
  7 14  1  0  0  0  0
 14 15  1  0  0  0  0
 15 16  2  0  0  0  0
 15 17  2  0  0  0  0
 17 18  1  0  0  0  0
 15 19  1  0  0  0  0
 19 20  1  0  0  0  0
  1 21  1  0  0  0  0
  1 22  1  0  0  0  0
  1 23  1  0  0  0  0
  2 24  1  0  0  0  0
  2 25  1  0  0  0  0
  6 26  1  0  0  0  0
  6 27  1  0  0  0  0
 12 28  1  0  0  0  0
 12 29  1  0  0  0  0
 13 30  1  0  0  0  0
 13 31  1  0  0  0  0
 13 32  1  0  0  0  0
 18 33  1  0  0  0  0
 18 34  1  0  0  0  0
 18 35  1  0  0  0  0
 20 36  1  0  0  0  0
 20 37  1  0  0  0  0
 20 38  1  0  0  0  0
M  END
