 xtb: 6.7.1 (edcfbbe)
          04092505213D

 41 40  0     0  0            999 V2000
    5.7592   -0.4345   -1.2440 C   0  0  0  0  0  0  0  0  0  0  0  0
    4.6841   -1.4084   -1.6807 C   0  0  0  0  0  0  0  0  0  0  0  0
    3.3613   -0.8336   -1.6086 O   0  0  0  0  0  0  0  0  0  0  0  0
    2.6830   -0.3208   -0.2743 P   0  0  0  0  0  0  0  0  0  0  0  0
    3.1561    1.4650    0.4022 S   0  0  0  0  0  0  0  0  0  0  0  0
    3.0322   -1.5058    0.7323 O   0  0  0  0  0  0  0  0  0  0  0  0
    2.9495   -1.3574    2.1586 C   0  0  0  0  0  0  0  0  0  0  0  0
    1.5208   -1.4593    2.6510 C   0  0  0  0  0  0  0  0  0  0  0  0
    0.6838   -0.5516   -0.9347 S   0  0  0  0  0  0  0  0  0  0  0  0
   -0.0466    0.9891   -0.3016 C   0  0  0  0  0  0  0  0  0  0  0  0
   -1.1977    0.7339    1.0711 S   0  0  0  0  0  0  0  0  0  0  0  0
   -2.9750    0.3745   -0.0560 P   0  0  0  0  0  0  0  0  0  0  0  0
   -2.9189    0.9942   -1.9225 S   0  0  0  0  0  0  0  0  0  0  0  0
   -4.1434    0.9445    0.8386 O   0  0  0  0  0  0  0  0  0  0  0  0
   -4.6032    2.3035    0.7223 C   0  0  0  0  0  0  0  0  0  0  0  0
   -3.5733    3.3036    1.2092 C   0  0  0  0  0  0  0  0  0  0  0  0
   -3.3571   -1.1475    0.1504 O   0  0  0  0  0  0  0  0  0  0  0  0
   -2.6422   -2.2265   -0.4827 C   0  0  0  0  0  0  0  0  0  0  0  0
   -1.7379   -2.9224    0.5156 C   0  0  0  0  0  0  0  0  0  0  0  0
    5.6377   -0.1866   -0.1902 H   0  0  0  0  0  0  0  0  0  0  0  0
    6.7361   -0.8839   -1.3920 H   0  0  0  0  0  0  0  0  0  0  0  0
    5.6946    0.4842   -1.8226 H   0  0  0  0  0  0  0  0  0  0  0  0
    4.7012   -2.3119   -1.0677 H   0  0  0  0  0  0  0  0  0  0  0  0
    4.7877   -1.6720   -2.7346 H   0  0  0  0  0  0  0  0  0  0  0  0
    3.5657   -2.1694    2.5474 H   0  0  0  0  0  0  0  0  0  0  0  0
    3.3866   -0.3921    2.4353 H   0  0  0  0  0  0  0  0  0  0  0  0
    1.0709   -2.3876    2.3086 H   0  0  0  0  0  0  0  0  0  0  0  0
    1.5122   -1.4364    3.7359 H   0  0  0  0  0  0  0  0  0  0  0  0
    0.9326   -0.6191    2.2820 H   0  0  0  0  0  0  0  0  0  0  0  0
   -0.5895    1.4535   -1.1264 H   0  0  0  0  0  0  0  0  0  0  0  0
    0.7576    1.6354    0.0592 H   0  0  0  0  0  0  0  0  0  0  0  0
   -4.8624    2.4956   -0.3240 H   0  0  0  0  0  0  0  0  0  0  0  0
   -5.5048    2.3251    1.3360 H   0  0  0  0  0  0  0  0  0  0  0  0
   -3.2319    3.0387    2.2067 H   0  0  0  0  0  0  0  0  0  0  0  0
   -2.7171    3.3182    0.5360 H   0  0  0  0  0  0  0  0  0  0  0  0
   -4.0179    4.2935    1.2309 H   0  0  0  0  0  0  0  0  0  0  0  0
   -3.4188   -2.9012   -0.8490 H   0  0  0  0  0  0  0  0  0  0  0  0
   -2.0705   -1.8401   -1.3341 H   0  0  0  0  0  0  0  0  0  0  0  0
   -2.3180   -3.2503    1.3732 H   0  0  0  0  0  0  0  0  0  0  0  0
   -1.2772   -3.7806    0.0373 H   0  0  0  0  0  0  0  0  0  0  0  0
   -0.9585   -2.2452    0.8542 H   0  0  0  0  0  0  0  0  0  0  0  0
  1  2  1  0  0  0  0
  2  3  1  0  0  0  0
  3  4  2  0  0  0  0
  4  5  2  0  0  0  0
  4  6  2  0  0  0  0
  6  7  1  0  0  0  0
  7  8  1  0  0  0  0
  4  9  1  0  0  0  0
  9 10  1  0  0  0  0
 10 11  1  0  0  0  0
 11 12  1  0  0  0  0
 12 13  2  0  0  0  0
 12 14  2  0  0  0  0
 14 15  1  0  0  0  0
 15 16  1  0  0  0  0
 12 17  2  0  0  0  0
 17 18  1  0  0  0  0
 18 19  1  0  0  0  0
  1 20  1  0  0  0  0
  1 21  1  0  0  0  0
  1 22  1  0  0  0  0
  2 23  1  0  0  0  0
  2 24  1  0  0  0  0
  7 25  1  0  0  0  0
  7 26  1  0  0  0  0
  8 27  1  0  0  0  0
  8 28  1  0  0  0  0
  8 29  1  0  0  0  0
 10 30  1  0  0  0  0
 10 31  1  0  0  0  0
 15 32  1  0  0  0  0
 15 33  1  0  0  0  0
 16 34  1  0  0  0  0
 16 35  1  0  0  0  0
 16 36  1  0  0  0  0
 18 37  1  0  0  0  0
 18 38  1  0  0  0  0
 19 39  1  0  0  0  0
 19 40  1  0  0  0  0
 19 41  1  0  0  0  0
M  END
