 xtb: 6.7.1 (edcfbbe)
          04092505213D

 41 40  0     0  0            999 V2000
    3.0739    2.4765   -1.2076 C   0  0  0  0  0  0  0  0  0  0  0  0
    3.4237    1.0573   -1.6043 C   0  0  0  0  0  0  0  0  0  0  0  0
    2.4107    0.1156   -1.1893 O   0  0  0  0  0  0  0  0  0  0  0  0
    2.0833   -0.2519    0.3069 P   0  0  0  0  0  0  0  0  0  0  0  0
    1.1534    1.0051    1.5001 S   0  0  0  0  0  0  0  0  0  0  0  0
    3.5382   -0.6272    0.8396 O   0  0  0  0  0  0  0  0  0  0  0  0
    3.8152   -0.8967    2.2268 C   0  0  0  0  0  0  0  0  0  0  0  0
    5.2709   -0.5670    2.4909 C   0  0  0  0  0  0  0  0  0  0  0  0
    1.1153   -2.1025    0.0147 S   0  0  0  0  0  0  0  0  0  0  0  0
   -0.4191   -1.8578    0.9721 C   0  0  0  0  0  0  0  0  0  0  0  0
   -1.9229   -1.9140   -0.0335 S   0  0  0  0  0  0  0  0  0  0  0  0
   -2.0344    0.0817   -0.6994 P   0  0  0  0  0  0  0  0  0  0  0  0
   -0.5938    0.8823   -1.7551 S   0  0  0  0  0  0  0  0  0  0  0  0
   -2.3084    0.8040    0.7009 O   0  0  0  0  0  0  0  0  0  0  0  0
   -2.0861    2.2099    0.8915 C   0  0  0  0  0  0  0  0  0  0  0  0
   -3.1620    3.0358    0.2187 C   0  0  0  0  0  0  0  0  0  0  0  0
   -3.3612    0.0938   -1.5651 O   0  0  0  0  0  0  0  0  0  0  0  0
   -4.5465   -0.7034   -1.3328 C   0  0  0  0  0  0  0  0  0  0  0  0
   -5.2419   -0.3503   -0.0350 C   0  0  0  0  0  0  0  0  0  0  0  0
    3.7984    3.1621   -1.6350 H   0  0  0  0  0  0  0  0  0  0  0  0
    2.0795    2.7251   -1.5739 H   0  0  0  0  0  0  0  0  0  0  0  0
    3.0795    2.5800   -0.1235 H   0  0  0  0  0  0  0  0  0  0  0  0
    4.3804    0.7475   -1.1774 H   0  0  0  0  0  0  0  0  0  0  0  0
    3.4410    0.9414   -2.6893 H   0  0  0  0  0  0  0  0  0  0  0  0
    3.1486   -0.2831    2.8426 H   0  0  0  0  0  0  0  0  0  0  0  0
    3.6063   -1.9535    2.4101 H   0  0  0  0  0  0  0  0  0  0  0  0
    5.4559    0.4887    2.3124 H   0  0  0  0  0  0  0  0  0  0  0  0
    5.5052   -0.8003    3.5243 H   0  0  0  0  0  0  0  0  0  0  0  0
    5.9090   -1.1532    1.8358 H   0  0  0  0  0  0  0  0  0  0  0  0
   -0.3598   -0.9002    1.4978 H   0  0  0  0  0  0  0  0  0  0  0  0
   -0.5044   -2.6889    1.6669 H   0  0  0  0  0  0  0  0  0  0  0  0
   -2.0829    2.3365    1.9751 H   0  0  0  0  0  0  0  0  0  0  0  0
   -1.0974    2.4666    0.4974 H   0  0  0  0  0  0  0  0  0  0  0  0
   -2.9668    4.0893    0.3923 H   0  0  0  0  0  0  0  0  0  0  0  0
   -3.1507    2.8437   -0.8543 H   0  0  0  0  0  0  0  0  0  0  0  0
   -4.1397    2.7796    0.6173 H   0  0  0  0  0  0  0  0  0  0  0  0
   -5.1712   -0.4782   -2.1989 H   0  0  0  0  0  0  0  0  0  0  0  0
   -4.2598   -1.7577   -1.3481 H   0  0  0  0  0  0  0  0  0  0  0  0
   -6.1397   -0.9533    0.0581 H   0  0  0  0  0  0  0  0  0  0  0  0
   -4.5887   -0.5543    0.8104 H   0  0  0  0  0  0  0  0  0  0  0  0
   -5.5161    0.7012   -0.0276 H   0  0  0  0  0  0  0  0  0  0  0  0
  1  2  1  0  0  0  0
  2  3  1  0  0  0  0
  3  4  2  0  0  0  0
  4  5  2  0  0  0  0
  4  6  2  0  0  0  0
  6  7  1  0  0  0  0
  7  8  1  0  0  0  0
  4  9  1  0  0  0  0
  9 10  1  0  0  0  0
 10 11  1  0  0  0  0
 11 12  1  0  0  0  0
 12 13  2  0  0  0  0
 12 14  1  0  0  0  0
 14 15  1  0  0  0  0
 15 16  1  0  0  0  0
 12 17  2  0  0  0  0
 17 18  1  0  0  0  0
 18 19  1  0  0  0  0
  1 20  1  0  0  0  0
  1 21  1  0  0  0  0
  1 22  1  0  0  0  0
  2 23  1  0  0  0  0
  2 24  1  0  0  0  0
  7 25  1  0  0  0  0
  7 26  1  0  0  0  0
  8 27  1  0  0  0  0
  8 28  1  0  0  0  0
  8 29  1  0  0  0  0
 10 30  1  0  0  0  0
 10 31  1  0  0  0  0
 15 32  1  0  0  0  0
 15 33  1  0  0  0  0
 16 34  1  0  0  0  0
 16 35  1  0  0  0  0
 16 36  1  0  0  0  0
 18 37  1  0  0  0  0
 18 38  1  0  0  0  0
 19 39  1  0  0  0  0
 19 40  1  0  0  0  0
 19 41  1  0  0  0  0
M  END
