 xtb: 6.7.1 (edcfbbe)
          04092505203D

 41 40  0     0  0            999 V2000
    2.6805   -1.5092    2.9270 C   0  0  0  0  0  0  0  0  0  0  0  0
    1.4041   -1.5285    2.1134 C   0  0  0  0  0  0  0  0  0  0  0  0
    1.2948   -0.3519    1.2870 O   0  0  0  0  0  0  0  0  0  0  0  0
    2.1843   -0.1386   -0.0004 P   0  0  0  0  0  0  0  0  0  0  0  0
    2.8866   -1.7459   -0.8816 S   0  0  0  0  0  0  0  0  0  0  0  0
    3.2823    0.8680    0.5463 O   0  0  0  0  0  0  0  0  0  0  0  0
    4.3933    1.2948   -0.2692 C   0  0  0  0  0  0  0  0  0  0  0  0
    5.4743    1.8207    0.6536 C   0  0  0  0  0  0  0  0  0  0  0  0
    0.9451    1.1062   -1.1790 S   0  0  0  0  0  0  0  0  0  0  0  0
    0.1150   -0.2243   -2.0901 C   0  0  0  0  0  0  0  0  0  0  0  0
   -0.8260   -1.3429   -1.0161 S   0  0  0  0  0  0  0  0  0  0  0  0
   -2.1692    0.1090   -0.2663 P   0  0  0  0  0  0  0  0  0  0  0  0
   -2.7505    1.4891   -1.5353 S   0  0  0  0  0  0  0  0  0  0  0  0
   -1.4213    0.5960    1.0366 O   0  0  0  0  0  0  0  0  0  0  0  0
   -1.6041    1.9186    1.5811 C   0  0  0  0  0  0  0  0  0  0  0  0
   -2.9611    2.0575    2.2374 C   0  0  0  0  0  0  0  0  0  0  0  0
   -3.3335   -0.7712    0.3560 O   0  0  0  0  0  0  0  0  0  0  0  0
   -4.3587   -1.3649   -0.4675 C   0  0  0  0  0  0  0  0  0  0  0  0
   -5.5383   -1.6976    0.4237 C   0  0  0  0  0  0  0  0  0  0  0  0
    3.5397   -1.5632    2.2592 H   0  0  0  0  0  0  0  0  0  0  0  0
    2.7428   -0.5921    3.5065 H   0  0  0  0  0  0  0  0  0  0  0  0
    2.6969   -2.3645    3.5951 H   0  0  0  0  0  0  0  0  0  0  0  0
    0.5130   -1.4915    2.7416 H   0  0  0  0  0  0  0  0  0  0  0  0
    1.3646   -2.4129    1.4687 H   0  0  0  0  0  0  0  0  0  0  0  0
    4.7456    0.4383   -0.8539 H   0  0  0  0  0  0  0  0  0  0  0  0
    4.0365    2.0712   -0.9511 H   0  0  0  0  0  0  0  0  0  0  0  0
    5.8154    1.0328    1.3190 H   0  0  0  0  0  0  0  0  0  0  0  0
    6.3099    2.1722    0.0574 H   0  0  0  0  0  0  0  0  0  0  0  0
    5.0853    2.6414    1.2491 H   0  0  0  0  0  0  0  0  0  0  0  0
    0.8568   -0.8382   -2.5999 H   0  0  0  0  0  0  0  0  0  0  0  0
   -0.5590    0.2596   -2.7961 H   0  0  0  0  0  0  0  0  0  0  0  0
   -0.7866    2.0233    2.2959 H   0  0  0  0  0  0  0  0  0  0  0  0
   -1.4838    2.6484    0.7734 H   0  0  0  0  0  0  0  0  0  0  0  0
   -3.0970    1.2826    2.9872 H   0  0  0  0  0  0  0  0  0  0  0  0
   -3.0392    3.0342    2.7043 H   0  0  0  0  0  0  0  0  0  0  0  0
   -3.7424    1.9600    1.4843 H   0  0  0  0  0  0  0  0  0  0  0  0
   -4.6348   -0.6497   -1.2497 H   0  0  0  0  0  0  0  0  0  0  0  0
   -3.9436   -2.2624   -0.9337 H   0  0  0  0  0  0  0  0  0  0  0  0
   -5.2253   -2.3728    1.2147 H   0  0  0  0  0  0  0  0  0  0  0  0
   -5.9380   -0.7919    0.8708 H   0  0  0  0  0  0  0  0  0  0  0  0
   -6.3103   -2.1735   -0.1719 H   0  0  0  0  0  0  0  0  0  0  0  0
  1  2  1  0  0  0  0
  2  3  1  0  0  0  0
  3  4  2  0  0  0  0
  4  5  2  0  0  0  0
  4  6  2  0  0  0  0
  6  7  1  0  0  0  0
  7  8  1  0  0  0  0
  4  9  1  0  0  0  0
  9 10  1  0  0  0  0
 10 11  1  0  0  0  0
 11 12  1  0  0  0  0
 12 13  2  0  0  0  0
 12 14  2  0  0  0  0
 14 15  1  0  0  0  0
 15 16  1  0  0  0  0
 12 17  2  0  0  0  0
 17 18  1  0  0  0  0
 18 19  1  0  0  0  0
  1 20  1  0  0  0  0
  1 21  1  0  0  0  0
  1 22  1  0  0  0  0
  2 23  1  0  0  0  0
  2 24  1  0  0  0  0
  7 25  1  0  0  0  0
  7 26  1  0  0  0  0
  8 27  1  0  0  0  0
  8 28  1  0  0  0  0
  8 29  1  0  0  0  0
 10 30  1  0  0  0  0
 10 31  1  0  0  0  0
 15 32  1  0  0  0  0
 15 33  1  0  0  0  0
 16 34  1  0  0  0  0
 16 35  1  0  0  0  0
 16 36  1  0  0  0  0
 18 37  1  0  0  0  0
 18 38  1  0  0  0  0
 19 39  1  0  0  0  0
 19 40  1  0  0  0  0
 19 41  1  0  0  0  0
M  END
