 xtb: 6.7.1 (edcfbbe)
          04092505203D

 41 40  0     0  0            999 V2000
    3.2548   -0.6276   -2.7049 C   0  0  0  0  0  0  0  0  0  0  0  0
    2.0129   -1.0993   -1.9791 C   0  0  0  0  0  0  0  0  0  0  0  0
    1.4720   -0.0558   -1.1316 O   0  0  0  0  0  0  0  0  0  0  0  0
    1.8447    0.1573    0.3843 P   0  0  0  0  0  0  0  0  0  0  0  0
    0.8824    1.6508    1.1972 S   0  0  0  0  0  0  0  0  0  0  0  0
    3.4249    0.3111    0.3484 O   0  0  0  0  0  0  0  0  0  0  0  0
    4.1775    0.8672    1.4429 C   0  0  0  0  0  0  0  0  0  0  0  0
    4.1575   -0.0229    2.6683 C   0  0  0  0  0  0  0  0  0  0  0  0
    1.5283   -1.7339    1.2992 S   0  0  0  0  0  0  0  0  0  0  0  0
   -0.2666   -1.5857    1.4582 C   0  0  0  0  0  0  0  0  0  0  0  0
   -1.1510   -1.7595   -0.1305 S   0  0  0  0  0  0  0  0  0  0  0  0
   -2.0004    0.1416   -0.5055 P   0  0  0  0  0  0  0  0  0  0  0  0
   -1.2046    1.4287   -1.7618 S   0  0  0  0  0  0  0  0  0  0  0  0
   -2.2418    0.6162    0.9835 O   0  0  0  0  0  0  0  0  0  0  0  0
   -2.7173    1.9509    1.2714 C   0  0  0  0  0  0  0  0  0  0  0  0
   -2.4845    2.2180    2.7430 C   0  0  0  0  0  0  0  0  0  0  0  0
   -3.4885   -0.2367   -0.9467 O   0  0  0  0  0  0  0  0  0  0  0  0
   -3.8451   -0.4530   -2.3190 C   0  0  0  0  0  0  0  0  0  0  0  0
   -3.2206   -1.7231   -2.8597 C   0  0  0  0  0  0  0  0  0  0  0  0
    3.5712   -1.4006   -3.3983 H   0  0  0  0  0  0  0  0  0  0  0  0
    3.0372    0.2833   -3.2566 H   0  0  0  0  0  0  0  0  0  0  0  0
    4.0550   -0.4282   -1.9974 H   0  0  0  0  0  0  0  0  0  0  0  0
    2.2186   -1.9814   -1.3655 H   0  0  0  0  0  0  0  0  0  0  0  0
    1.2018   -1.3168   -2.6775 H   0  0  0  0  0  0  0  0  0  0  0  0
    5.1846    0.9716    1.0367 H   0  0  0  0  0  0  0  0  0  0  0  0
    3.7674    1.8548    1.6757 H   0  0  0  0  0  0  0  0  0  0  0  0
    4.8545    0.3678    3.4027 H   0  0  0  0  0  0  0  0  0  0  0  0
    3.1599   -0.0390    3.1035 H   0  0  0  0  0  0  0  0  0  0  0  0
    4.4421   -1.0381    2.4037 H   0  0  0  0  0  0  0  0  0  0  0  0
   -0.5141   -0.6220    1.9012 H   0  0  0  0  0  0  0  0  0  0  0  0
   -0.5887   -2.4107    2.0877 H   0  0  0  0  0  0  0  0  0  0  0  0
   -2.1647    2.6589    0.6441 H   0  0  0  0  0  0  0  0  0  0  0  0
   -3.7779    1.9908    1.0121 H   0  0  0  0  0  0  0  0  0  0  0  0
   -1.4182    2.2012    2.9559 H   0  0  0  0  0  0  0  0  0  0  0  0
   -2.8810    3.1968    2.9913 H   0  0  0  0  0  0  0  0  0  0  0  0
   -2.9829    1.4611    3.3416 H   0  0  0  0  0  0  0  0  0  0  0  0
   -4.9342   -0.5075   -2.3065 H   0  0  0  0  0  0  0  0  0  0  0  0
   -3.5195    0.4159   -2.9013 H   0  0  0  0  0  0  0  0  0  0  0  0
   -2.1342   -1.6251   -2.8495 H   0  0  0  0  0  0  0  0  0  0  0  0
   -3.4977   -2.5746   -2.2440 H   0  0  0  0  0  0  0  0  0  0  0  0
   -3.5519   -1.8867   -3.8799 H   0  0  0  0  0  0  0  0  0  0  0  0
  1  2  1  0  0  0  0
  2  3  1  0  0  0  0
  3  4  2  0  0  0  0
  4  5  2  0  0  0  0
  4  6  2  0  0  0  0
  6  7  1  0  0  0  0
  7  8  1  0  0  0  0
  4  9  1  0  0  0  0
  9 10  1  0  0  0  0
 10 11  1  0  0  0  0
 11 12  1  0  0  0  0
 12 13  2  0  0  0  0
 12 14  2  0  0  0  0
 14 15  1  0  0  0  0
 15 16  1  0  0  0  0
 12 17  2  0  0  0  0
 17 18  1  0  0  0  0
 18 19  1  0  0  0  0
  1 20  1  0  0  0  0
  1 21  1  0  0  0  0
  1 22  1  0  0  0  0
  2 23  1  0  0  0  0
  2 24  1  0  0  0  0
  7 25  1  0  0  0  0
  7 26  1  0  0  0  0
  8 27  1  0  0  0  0
  8 28  1  0  0  0  0
  8 29  1  0  0  0  0
 10 30  1  0  0  0  0
 10 31  1  0  0  0  0
 15 32  1  0  0  0  0
 15 33  1  0  0  0  0
 16 34  1  0  0  0  0
 16 35  1  0  0  0  0
 16 36  1  0  0  0  0
 18 37  1  0  0  0  0
 18 38  1  0  0  0  0
 19 39  1  0  0  0  0
 19 40  1  0  0  0  0
 19 41  1  0  0  0  0
M  END
