 xtb: 6.7.1 (edcfbbe)
          04092505213D

 41 40  0     0  0            999 V2000
    4.1188    2.1789   -0.0219 C   0  0  0  0  0  0  0  0  0  0  0  0
    4.1256    0.8336   -0.7167 C   0  0  0  0  0  0  0  0  0  0  0  0
    2.8071    0.2431   -0.7831 O   0  0  0  0  0  0  0  0  0  0  0  0
    1.9864   -0.2389    0.4820 P   0  0  0  0  0  0  0  0  0  0  0  0
    1.1022    1.1076    1.6054 S   0  0  0  0  0  0  0  0  0  0  0  0
    3.0712   -1.0878    1.2792 O   0  0  0  0  0  0  0  0  0  0  0  0
    2.8495   -1.5113    2.6333 C   0  0  0  0  0  0  0  0  0  0  0  0
    1.8182   -2.6185    2.7032 C   0  0  0  0  0  0  0  0  0  0  0  0
    0.7678   -1.7102   -0.4712 S   0  0  0  0  0  0  0  0  0  0  0  0
    0.3854   -0.8242   -2.0069 C   0  0  0  0  0  0  0  0  0  0  0  0
   -0.3199    0.8214   -1.7441 S   0  0  0  0  0  0  0  0  0  0  0  0
   -2.1398    0.1465   -0.9038 P   0  0  0  0  0  0  0  0  0  0  0  0
   -2.9563   -1.4256   -1.7249 S   0  0  0  0  0  0  0  0  0  0  0  0
   -3.0916    1.4073   -1.0041 O   0  0  0  0  0  0  0  0  0  0  0  0
   -2.6959    2.7872   -0.8258 C   0  0  0  0  0  0  0  0  0  0  0  0
   -2.3005    3.0996    0.6022 C   0  0  0  0  0  0  0  0  0  0  0  0
   -1.7271   -0.0391    0.6267 O   0  0  0  0  0  0  0  0  0  0  0  0
   -2.3029   -1.0444    1.4755 C   0  0  0  0  0  0  0  0  0  0  0  0
   -3.7135   -0.6724    1.8823 C   0  0  0  0  0  0  0  0  0  0  0  0
    3.8410    2.0631    1.0245 H   0  0  0  0  0  0  0  0  0  0  0  0
    5.1101    2.6175   -0.0795 H   0  0  0  0  0  0  0  0  0  0  0  0
    3.4015    2.8442   -0.4966 H   0  0  0  0  0  0  0  0  0  0  0  0
    4.7916    0.1316   -0.2109 H   0  0  0  0  0  0  0  0  0  0  0  0
    4.4113    0.9287   -1.7657 H   0  0  0  0  0  0  0  0  0  0  0  0
    3.8297   -1.8473    2.9734 H   0  0  0  0  0  0  0  0  0  0  0  0
    2.5266   -0.6439    3.2194 H   0  0  0  0  0  0  0  0  0  0  0  0
    0.8588   -2.2486    2.3395 H   0  0  0  0  0  0  0  0  0  0  0  0
    2.1194   -3.4581    2.0826 H   0  0  0  0  0  0  0  0  0  0  0  0
    1.7051   -2.9478    3.7309 H   0  0  0  0  0  0  0  0  0  0  0  0
   -0.3375   -1.4471   -2.5362 H   0  0  0  0  0  0  0  0  0  0  0  0
    1.2932   -0.6859   -2.5877 H   0  0  0  0  0  0  0  0  0  0  0  0
   -1.8740    3.0022   -1.5146 H   0  0  0  0  0  0  0  0  0  0  0  0
   -3.5854    3.3429   -1.1278 H   0  0  0  0  0  0  0  0  0  0  0  0
   -2.0930    4.1617    0.6874 H   0  0  0  0  0  0  0  0  0  0  0  0
   -3.1068    2.8376    1.2822 H   0  0  0  0  0  0  0  0  0  0  0  0
   -1.4072    2.5455    0.8860 H   0  0  0  0  0  0  0  0  0  0  0  0
   -2.2885   -2.0025    0.9454 H   0  0  0  0  0  0  0  0  0  0  0  0
   -1.6300   -1.0829    2.3342 H   0  0  0  0  0  0  0  0  0  0  0  0
   -3.7152    0.2802    2.4054 H   0  0  0  0  0  0  0  0  0  0  0  0
   -4.3391   -0.5903    0.9934 H   0  0  0  0  0  0  0  0  0  0  0  0
   -4.1175   -1.4425    2.5316 H   0  0  0  0  0  0  0  0  0  0  0  0
  1  2  1  0  0  0  0
  2  3  1  0  0  0  0
  3  4  2  0  0  0  0
  4  5  2  0  0  0  0
  4  6  2  0  0  0  0
  6  7  1  0  0  0  0
  7  8  1  0  0  0  0
  4  9  1  0  0  0  0
  9 10  1  0  0  0  0
 10 11  1  0  0  0  0
 11 12  1  0  0  0  0
 12 13  2  0  0  0  0
 12 14  2  0  0  0  0
 14 15  1  0  0  0  0
 15 16  1  0  0  0  0
 12 17  1  0  0  0  0
 17 18  1  0  0  0  0
 18 19  1  0  0  0  0
  1 20  1  0  0  0  0
  1 21  1  0  0  0  0
  1 22  1  0  0  0  0
  2 23  1  0  0  0  0
  2 24  1  0  0  0  0
  7 25  1  0  0  0  0
  7 26  1  0  0  0  0
  8 27  1  0  0  0  0
  8 28  1  0  0  0  0
  8 29  1  0  0  0  0
 10 30  1  0  0  0  0
 10 31  1  0  0  0  0
 15 32  1  0  0  0  0
 15 33  1  0  0  0  0
 16 34  1  0  0  0  0
 16 35  1  0  0  0  0
 16 36  1  0  0  0  0
 18 37  1  0  0  0  0
 18 38  1  0  0  0  0
 19 39  1  0  0  0  0
 19 40  1  0  0  0  0
 19 41  1  0  0  0  0
M  END
