 xtb: 6.7.1 (edcfbbe)
          04092505213D

 41 40  0     0  0            999 V2000
    4.2644   -0.0838   -2.7127 C   0  0  0  0  0  0  0  0  0  0  0  0
    4.5929    0.7017   -1.4594 C   0  0  0  0  0  0  0  0  0  0  0  0
    4.0290    0.1010   -0.2809 O   0  0  0  0  0  0  0  0  0  0  0  0
    2.4621    0.0315   -0.0127 P   0  0  0  0  0  0  0  0  0  0  0  0
    1.4906    1.6636   -0.5209 S   0  0  0  0  0  0  0  0  0  0  0  0
    2.4341   -0.3609    1.5162 O   0  0  0  0  0  0  0  0  0  0  0  0
    2.3491    0.5944    2.5969 C   0  0  0  0  0  0  0  0  0  0  0  0
    1.5829   -0.0540    3.7318 C   0  0  0  0  0  0  0  0  0  0  0  0
    1.8528   -1.8055   -0.8475 S   0  0  0  0  0  0  0  0  0  0  0  0
    0.0890   -1.4394   -0.9679 C   0  0  0  0  0  0  0  0  0  0  0  0
   -0.6462   -1.0708    0.6643 S   0  0  0  0  0  0  0  0  0  0  0  0
   -2.3755   -0.1298   -0.0891 P   0  0  0  0  0  0  0  0  0  0  0  0
   -2.2013    1.0181   -1.6750 S   0  0  0  0  0  0  0  0  0  0  0  0
   -3.0503    0.5495    1.1778 O   0  0  0  0  0  0  0  0  0  0  0  0
   -2.8156    1.9214    1.5396 C   0  0  0  0  0  0  0  0  0  0  0  0
   -1.4227    2.1289    2.0967 C   0  0  0  0  0  0  0  0  0  0  0  0
   -3.2567   -1.4298   -0.2995 O   0  0  0  0  0  0  0  0  0  0  0  0
   -4.4370   -1.4361   -1.1296 C   0  0  0  0  0  0  0  0  0  0  0  0
   -5.5581   -0.6185   -0.5237 C   0  0  0  0  0  0  0  0  0  0  0  0
    3.1968   -0.0231   -2.9214 H   0  0  0  0  0  0  0  0  0  0  0  0
    4.8104    0.3337   -3.5527 H   0  0  0  0  0  0  0  0  0  0  0  0
    4.5365   -1.1286   -2.5855 H   0  0  0  0  0  0  0  0  0  0  0  0
    4.2170    1.7271   -1.5376 H   0  0  0  0  0  0  0  0  0  0  0  0
    5.6651    0.7133   -1.2594 H   0  0  0  0  0  0  0  0  0  0  0  0
    3.3685    0.8502    2.8945 H   0  0  0  0  0  0  0  0  0  0  0  0
    1.8435    1.4948    2.2314 H   0  0  0  0  0  0  0  0  0  0  0  0
    1.4918    0.6515    4.5510 H   0  0  0  0  0  0  0  0  0  0  0  0
    0.5937   -0.3480    3.3898 H   0  0  0  0  0  0  0  0  0  0  0  0
    2.1079   -0.9411    4.0732 H   0  0  0  0  0  0  0  0  0  0  0  0
   -0.3800   -2.3264   -1.3877 H   0  0  0  0  0  0  0  0  0  0  0  0
   -0.0622   -0.5679   -1.6107 H   0  0  0  0  0  0  0  0  0  0  0  0
   -2.9712    2.5473    0.6545 H   0  0  0  0  0  0  0  0  0  0  0  0
   -3.5833    2.1315    2.2856 H   0  0  0  0  0  0  0  0  0  0  0  0
   -1.2359    1.4360    2.9130 H   0  0  0  0  0  0  0  0  0  0  0  0
   -0.6813    1.9656    1.3145 H   0  0  0  0  0  0  0  0  0  0  0  0
   -1.3258    3.1479    2.4574 H   0  0  0  0  0  0  0  0  0  0  0  0
   -4.1663   -1.0483   -2.1169 H   0  0  0  0  0  0  0  0  0  0  0  0
   -4.6982   -2.4926   -1.2013 H   0  0  0  0  0  0  0  0  0  0  0  0
   -5.7480   -0.9401    0.4968 H   0  0  0  0  0  0  0  0  0  0  0  0
   -5.2849    0.4359   -0.5160 H   0  0  0  0  0  0  0  0  0  0  0  0
   -6.4578   -0.7452   -1.1177 H   0  0  0  0  0  0  0  0  0  0  0  0
  1  2  1  0  0  0  0
  2  3  1  0  0  0  0
  3  4  2  0  0  0  0
  4  5  2  0  0  0  0
  4  6  2  0  0  0  0
  6  7  1  0  0  0  0
  7  8  1  0  0  0  0
  4  9  1  0  0  0  0
  9 10  1  0  0  0  0
 10 11  1  0  0  0  0
 11 12  1  0  0  0  0
 12 13  2  0  0  0  0
 12 14  2  0  0  0  0
 14 15  1  0  0  0  0
 15 16  1  0  0  0  0
 12 17  2  0  0  0  0
 17 18  1  0  0  0  0
 18 19  1  0  0  0  0
  1 20  1  0  0  0  0
  1 21  1  0  0  0  0
  1 22  1  0  0  0  0
  2 23  1  0  0  0  0
  2 24  1  0  0  0  0
  7 25  1  0  0  0  0
  7 26  1  0  0  0  0
  8 27  1  0  0  0  0
  8 28  1  0  0  0  0
  8 29  1  0  0  0  0
 10 30  1  0  0  0  0
 10 31  1  0  0  0  0
 15 32  1  0  0  0  0
 15 33  1  0  0  0  0
 16 34  1  0  0  0  0
 16 35  1  0  0  0  0
 16 36  1  0  0  0  0
 18 37  1  0  0  0  0
 18 38  1  0  0  0  0
 19 39  1  0  0  0  0
 19 40  1  0  0  0  0
 19 41  1  0  0  0  0
M  END
