 xtb: 6.7.1 (edcfbbe)
          04092505203D

 41 40  0     0  0            999 V2000
    5.2133   -1.2985   -1.8902 C   0  0  0  0  0  0  0  0  0  0  0  0
    3.7312   -1.3602   -1.5809 C   0  0  0  0  0  0  0  0  0  0  0  0
    3.3938   -0.2012   -0.7958 O   0  0  0  0  0  0  0  0  0  0  0  0
    1.8735    0.1901   -0.5098 P   0  0  0  0  0  0  0  0  0  0  0  0
    0.8019    0.3974   -2.1298 S   0  0  0  0  0  0  0  0  0  0  0  0
    2.0404    1.5168    0.3062 O   0  0  0  0  0  0  0  0  0  0  0  0
    2.6737    1.6025    1.6076 C   0  0  0  0  0  0  0  0  0  0  0  0
    4.1279    2.0016    1.4729 C   0  0  0  0  0  0  0  0  0  0  0  0
    1.2586   -1.3512    0.8379 S   0  0  0  0  0  0  0  0  0  0  0  0
   -0.1285   -2.0762   -0.0881 C   0  0  0  0  0  0  0  0  0  0  0  0
   -1.7254   -1.9599    0.7659 S   0  0  0  0  0  0  0  0  0  0  0  0
   -2.1995    0.0520    0.4107 P   0  0  0  0  0  0  0  0  0  0  0  0
   -0.9955    1.4822    1.0289 S   0  0  0  0  0  0  0  0  0  0  0  0
   -3.6753    0.2039    0.9827 O   0  0  0  0  0  0  0  0  0  0  0  0
   -3.9384    0.6116    2.3367 C   0  0  0  0  0  0  0  0  0  0  0  0
   -3.4871   -0.4332    3.3362 C   0  0  0  0  0  0  0  0  0  0  0  0
   -2.4599   -0.0242   -1.1474 O   0  0  0  0  0  0  0  0  0  0  0  0
   -2.7389    1.1560   -1.9317 C   0  0  0  0  0  0  0  0  0  0  0  0
   -2.6747    0.7635   -3.3920 C   0  0  0  0  0  0  0  0  0  0  0  0
    5.4408   -0.3906   -2.4417 H   0  0  0  0  0  0  0  0  0  0  0  0
    5.7871   -1.3045   -0.9682 H   0  0  0  0  0  0  0  0  0  0  0  0
    5.4874   -2.1603   -2.4896 H   0  0  0  0  0  0  0  0  0  0  0  0
    3.4817   -2.2523   -0.9989 H   0  0  0  0  0  0  0  0  0  0  0  0
    3.1294   -1.3474   -2.4959 H   0  0  0  0  0  0  0  0  0  0  0  0
    2.0897    2.3582    2.1370 H   0  0  0  0  0  0  0  0  0  0  0  0
    2.5685    0.6401    2.1165 H   0  0  0  0  0  0  0  0  0  0  0  0
    4.6786    1.2387    0.9293 H   0  0  0  0  0  0  0  0  0  0  0  0
    4.2066    2.9422    0.9347 H   0  0  0  0  0  0  0  0  0  0  0  0
    4.5545    2.1176    2.4642 H   0  0  0  0  0  0  0  0  0  0  0  0
    0.0666   -3.1405   -0.1887 H   0  0  0  0  0  0  0  0  0  0  0  0
   -0.1967   -1.5851   -1.0629 H   0  0  0  0  0  0  0  0  0  0  0  0
   -3.4268    1.5630    2.5155 H   0  0  0  0  0  0  0  0  0  0  0  0
   -5.0189    0.7581    2.3608 H   0  0  0  0  0  0  0  0  0  0  0  0
   -2.4010   -0.5197    3.3143 H   0  0  0  0  0  0  0  0  0  0  0  0
   -3.7971   -0.1368    4.3331 H   0  0  0  0  0  0  0  0  0  0  0  0
   -3.9194   -1.4005    3.0930 H   0  0  0  0  0  0  0  0  0  0  0  0
   -3.7298    1.5223   -1.6521 H   0  0  0  0  0  0  0  0  0  0  0  0
   -1.9908    1.9190   -1.6900 H   0  0  0  0  0  0  0  0  0  0  0  0
   -1.6676    0.4364   -3.6401 H   0  0  0  0  0  0  0  0  0  0  0  0
   -3.3712   -0.0462   -3.5881 H   0  0  0  0  0  0  0  0  0  0  0  0
   -2.9321    1.6224   -4.0028 H   0  0  0  0  0  0  0  0  0  0  0  0
  1  2  1  0  0  0  0
  2  3  1  0  0  0  0
  3  4  2  0  0  0  0
  4  5  2  0  0  0  0
  4  6  2  0  0  0  0
  6  7  1  0  0  0  0
  7  8  1  0  0  0  0
  4  9  1  0  0  0  0
  9 10  1  0  0  0  0
 10 11  1  0  0  0  0
 11 12  1  0  0  0  0
 12 13  2  0  0  0  0
 12 14  2  0  0  0  0
 14 15  1  0  0  0  0
 15 16  1  0  0  0  0
 12 17  2  0  0  0  0
 17 18  1  0  0  0  0
 18 19  1  0  0  0  0
  1 20  1  0  0  0  0
  1 21  1  0  0  0  0
  1 22  1  0  0  0  0
  2 23  1  0  0  0  0
  2 24  1  0  0  0  0
  7 25  1  0  0  0  0
  7 26  1  0  0  0  0
  8 27  1  0  0  0  0
  8 28  1  0  0  0  0
  8 29  1  0  0  0  0
 10 30  1  0  0  0  0
 10 31  1  0  0  0  0
 15 32  1  0  0  0  0
 15 33  1  0  0  0  0
 16 34  1  0  0  0  0
 16 35  1  0  0  0  0
 16 36  1  0  0  0  0
 18 37  1  0  0  0  0
 18 38  1  0  0  0  0
 19 39  1  0  0  0  0
 19 40  1  0  0  0  0
 19 41  1  0  0  0  0
M  END
