 xtb: 6.7.1 (edcfbbe)
          04092505203D

 41 40  0     0  0            999 V2000
    4.8302   -2.5198   -1.5722 C   0  0  0  0  0  0  0  0  0  0  0  0
    3.9305   -1.3013   -1.6107 C   0  0  0  0  0  0  0  0  0  0  0  0
    2.9619   -1.4333   -0.5498 O   0  0  0  0  0  0  0  0  0  0  0  0
    2.0687   -0.2042   -0.0904 P   0  0  0  0  0  0  0  0  0  0  0  0
    3.0512    1.4481    0.3103 S   0  0  0  0  0  0  0  0  0  0  0  0
    1.2489   -0.8564    1.0923 O   0  0  0  0  0  0  0  0  0  0  0  0
    1.5517   -0.5937    2.4760 C   0  0  0  0  0  0  0  0  0  0  0  0
    2.8089   -1.3191    2.9064 C   0  0  0  0  0  0  0  0  0  0  0  0
    0.6260   -0.0742   -1.6290 S   0  0  0  0  0  0  0  0  0  0  0  0
    0.0246    1.5862   -1.2230 C   0  0  0  0  0  0  0  0  0  0  0  0
   -0.6966    1.6994    0.4390 S   0  0  0  0  0  0  0  0  0  0  0  0
   -2.2839    0.3484    0.1196 P   0  0  0  0  0  0  0  0  0  0  0  0
   -3.0835    0.2667   -1.6716 S   0  0  0  0  0  0  0  0  0  0  0  0
   -3.3275    0.6692    1.2780 O   0  0  0  0  0  0  0  0  0  0  0  0
   -4.4027    1.6101    1.1104 C   0  0  0  0  0  0  0  0  0  0  0  0
   -3.9002    3.0349    0.9977 C   0  0  0  0  0  0  0  0  0  0  0  0
   -1.6239   -0.9764    0.6807 O   0  0  0  0  0  0  0  0  0  0  0  0
   -2.1522   -2.2927    0.3994 C   0  0  0  0  0  0  0  0  0  0  0  0
   -1.2907   -2.9909   -0.6342 C   0  0  0  0  0  0  0  0  0  0  0  0
    5.3564   -2.5678   -0.6232 H   0  0  0  0  0  0  0  0  0  0  0  0
    4.2365   -3.4213   -1.6921 H   0  0  0  0  0  0  0  0  0  0  0  0
    5.5523   -2.4540   -2.3793 H   0  0  0  0  0  0  0  0  0  0  0  0
    3.3921   -1.2314   -2.5600 H   0  0  0  0  0  0  0  0  0  0  0  0
    4.4956   -0.3768   -1.4517 H   0  0  0  0  0  0  0  0  0  0  0  0
    1.6589    0.4877    2.6125 H   0  0  0  0  0  0  0  0  0  0  0  0
    0.6684   -0.9451    3.0110 H   0  0  0  0  0  0  0  0  0  0  0  0
    2.9743   -1.1589    3.9671 H   0  0  0  0  0  0  0  0  0  0  0  0
    2.7160   -2.3835    2.7083 H   0  0  0  0  0  0  0  0  0  0  0  0
    3.6620   -0.9305    2.3511 H   0  0  0  0  0  0  0  0  0  0  0  0
   -0.7298    1.8294   -1.9701 H   0  0  0  0  0  0  0  0  0  0  0  0
    0.8533    2.2933   -1.2450 H   0  0  0  0  0  0  0  0  0  0  0  0
   -4.9690    1.3302    0.2163 H   0  0  0  0  0  0  0  0  0  0  0  0
   -5.0168    1.4671    2.0005 H   0  0  0  0  0  0  0  0  0  0  0  0
   -3.2481    3.2735    1.8342 H   0  0  0  0  0  0  0  0  0  0  0  0
   -3.3409    3.1602    0.0714 H   0  0  0  0  0  0  0  0  0  0  0  0
   -4.7459    3.7150    0.9929 H   0  0  0  0  0  0  0  0  0  0  0  0
   -2.1317   -2.8153    1.3571 H   0  0  0  0  0  0  0  0  0  0  0  0
   -3.1853   -2.2017    0.0517 H   0  0  0  0  0  0  0  0  0  0  0  0
   -1.3608   -2.4777   -1.5913 H   0  0  0  0  0  0  0  0  0  0  0  0
   -0.2514   -2.9865   -0.3139 H   0  0  0  0  0  0  0  0  0  0  0  0
   -1.6297   -4.0150   -0.7525 H   0  0  0  0  0  0  0  0  0  0  0  0
  1  2  1  0  0  0  0
  2  3  1  0  0  0  0
  3  4  2  0  0  0  0
  4  5  2  0  0  0  0
  4  6  2  0  0  0  0
  6  7  1  0  0  0  0
  7  8  1  0  0  0  0
  4  9  1  0  0  0  0
  9 10  1  0  0  0  0
 10 11  1  0  0  0  0
 11 12  1  0  0  0  0
 12 13  2  0  0  0  0
 12 14  2  0  0  0  0
 14 15  1  0  0  0  0
 15 16  1  0  0  0  0
 12 17  2  0  0  0  0
 17 18  1  0  0  0  0
 18 19  1  0  0  0  0
  1 20  1  0  0  0  0
  1 21  1  0  0  0  0
  1 22  1  0  0  0  0
  2 23  1  0  0  0  0
  2 24  1  0  0  0  0
  7 25  1  0  0  0  0
  7 26  1  0  0  0  0
  8 27  1  0  0  0  0
  8 28  1  0  0  0  0
  8 29  1  0  0  0  0
 10 30  1  0  0  0  0
 10 31  1  0  0  0  0
 15 32  1  0  0  0  0
 15 33  1  0  0  0  0
 16 34  1  0  0  0  0
 16 35  1  0  0  0  0
 16 36  1  0  0  0  0
 18 37  1  0  0  0  0
 18 38  1  0  0  0  0
 19 39  1  0  0  0  0
 19 40  1  0  0  0  0
 19 41  1  0  0  0  0
M  END
