 xtb: 6.7.1 (edcfbbe)
          04092505213D

 41 40  0     0  0            999 V2000
    1.8530    2.6704    0.5082 C   0  0  0  0  0  0  0  0  0  0  0  0
    2.6670    2.0137    1.6035 C   0  0  0  0  0  0  0  0  0  0  0  0
    3.0047    0.6516    1.2860 O   0  0  0  0  0  0  0  0  0  0  0  0
    1.9041   -0.4871    1.1512 P   0  0  0  0  0  0  0  0  0  0  0  0
    0.4474   -0.4336    2.4520 S   0  0  0  0  0  0  0  0  0  0  0  0
    2.7328   -1.8228    1.3059 O   0  0  0  0  0  0  0  0  0  0  0  0
    3.9098   -2.1480    0.5257 C   0  0  0  0  0  0  0  0  0  0  0  0
    5.1737   -1.7019    1.2318 C   0  0  0  0  0  0  0  0  0  0  0  0
    1.3808   -0.4457   -0.9155 S   0  0  0  0  0  0  0  0  0  0  0  0
    0.0606   -1.6946   -0.8098 C   0  0  0  0  0  0  0  0  0  0  0  0
   -1.3208   -1.3704   -1.9424 S   0  0  0  0  0  0  0  0  0  0  0  0
   -2.2487    0.2718   -1.0103 P   0  0  0  0  0  0  0  0  0  0  0  0
   -3.9641    0.8457   -1.7616 S   0  0  0  0  0  0  0  0  0  0  0  0
   -1.1752    1.4531   -0.9015 O   0  0  0  0  0  0  0  0  0  0  0  0
   -1.0688    2.4566   -1.9268 C   0  0  0  0  0  0  0  0  0  0  0  0
   -0.4821    1.8929   -3.2051 C   0  0  0  0  0  0  0  0  0  0  0  0
   -2.2787   -0.2717    0.4771 O   0  0  0  0  0  0  0  0  0  0  0  0
   -2.9534    0.4634    1.5225 C   0  0  0  0  0  0  0  0  0  0  0  0
   -3.3497   -0.5184    2.6042 C   0  0  0  0  0  0  0  0  0  0  0  0
    1.7165    3.7212    0.7441 H   0  0  0  0  0  0  0  0  0  0  0  0
    2.3609    2.5759   -0.4486 H   0  0  0  0  0  0  0  0  0  0  0  0
    0.8760    2.1935    0.4387 H   0  0  0  0  0  0  0  0  0  0  0  0
    2.1172    2.0212    2.5499 H   0  0  0  0  0  0  0  0  0  0  0  0
    3.6350    2.4999    1.7335 H   0  0  0  0  0  0  0  0  0  0  0  0
    3.8741   -3.2345    0.4277 H   0  0  0  0  0  0  0  0  0  0  0  0
    3.8213   -1.6810   -0.4594 H   0  0  0  0  0  0  0  0  0  0  0  0
    5.2129   -2.1286    2.2304 H   0  0  0  0  0  0  0  0  0  0  0  0
    6.0342   -2.0413    0.6637 H   0  0  0  0  0  0  0  0  0  0  0  0
    5.2017   -0.6188    1.3116 H   0  0  0  0  0  0  0  0  0  0  0  0
   -0.3103   -1.7251    0.2156 H   0  0  0  0  0  0  0  0  0  0  0  0
    0.4543   -2.6589   -1.1219 H   0  0  0  0  0  0  0  0  0  0  0  0
   -2.0676    2.8660   -2.1093 H   0  0  0  0  0  0  0  0  0  0  0  0
   -0.4261    3.2208   -1.4885 H   0  0  0  0  0  0  0  0  0  0  0  0
   -1.1655    1.1595   -3.6331 H   0  0  0  0  0  0  0  0  0  0  0  0
   -0.3374    2.6973   -3.9188 H   0  0  0  0  0  0  0  0  0  0  0  0
    0.4710    1.4089   -3.0047 H   0  0  0  0  0  0  0  0  0  0  0  0
   -2.2565    1.2119    1.9065 H   0  0  0  0  0  0  0  0  0  0  0  0
   -3.8264    0.9621    1.0876 H   0  0  0  0  0  0  0  0  0  0  0  0
   -2.4589   -0.9887    3.0134 H   0  0  0  0  0  0  0  0  0  0  0  0
   -3.8680    0.0144    3.3945 H   0  0  0  0  0  0  0  0  0  0  0  0
   -4.0027   -1.2843    2.1952 H   0  0  0  0  0  0  0  0  0  0  0  0
  1  2  1  0  0  0  0
  2  3  1  0  0  0  0
  3  4  2  0  0  0  0
  4  5  2  0  0  0  0
  4  6  2  0  0  0  0
  6  7  1  0  0  0  0
  7  8  1  0  0  0  0
  4  9  1  0  0  0  0
  9 10  1  0  0  0  0
 10 11  1  0  0  0  0
 11 12  1  0  0  0  0
 12 13  2  0  0  0  0
 12 14  2  0  0  0  0
 14 15  1  0  0  0  0
 15 16  1  0  0  0  0
 12 17  2  0  0  0  0
 17 18  1  0  0  0  0
 18 19  1  0  0  0  0
  1 20  1  0  0  0  0
  1 21  1  0  0  0  0
  1 22  1  0  0  0  0
  2 23  1  0  0  0  0
  2 24  1  0  0  0  0
  7 25  1  0  0  0  0
  7 26  1  0  0  0  0
  8 27  1  0  0  0  0
  8 28  1  0  0  0  0
  8 29  1  0  0  0  0
 10 30  1  0  0  0  0
 10 31  1  0  0  0  0
 15 32  1  0  0  0  0
 15 33  1  0  0  0  0
 16 34  1  0  0  0  0
 16 35  1  0  0  0  0
 16 36  1  0  0  0  0
 18 37  1  0  0  0  0
 18 38  1  0  0  0  0
 19 39  1  0  0  0  0
 19 40  1  0  0  0  0
 19 41  1  0  0  0  0
M  END
