 xtb: 6.7.1 (edcfbbe)
          04092505203D

 41 40  0     0  0            999 V2000
    5.7878   -0.3587    0.2748 C   0  0  0  0  0  0  0  0  0  0  0  0
    4.4457   -0.7844   -0.2854 C   0  0  0  0  0  0  0  0  0  0  0  0
    3.4283    0.0265    0.3341 O   0  0  0  0  0  0  0  0  0  0  0  0
    1.9717    0.1562   -0.2911 P   0  0  0  0  0  0  0  0  0  0  0  0
    1.9534    0.5268   -2.2199 S   0  0  0  0  0  0  0  0  0  0  0  0
    1.3215    1.2122    0.6880 O   0  0  0  0  0  0  0  0  0  0  0  0
    1.3668    2.6303    0.4348 C   0  0  0  0  0  0  0  0  0  0  0  0
    2.7799    3.1687    0.4847 C   0  0  0  0  0  0  0  0  0  0  0  0
    1.0869   -1.6492    0.3262 S   0  0  0  0  0  0  0  0  0  0  0  0
   -0.1323   -1.9144   -1.0087 C   0  0  0  0  0  0  0  0  0  0  0  0
   -1.8202   -2.0380   -0.3913 S   0  0  0  0  0  0  0  0  0  0  0  0
   -2.0681    0.0058    0.1499 P   0  0  0  0  0  0  0  0  0  0  0  0
   -1.4399    1.3189   -1.1593 S   0  0  0  0  0  0  0  0  0  0  0  0
   -1.3141    0.2257    1.5156 O   0  0  0  0  0  0  0  0  0  0  0  0
   -1.5445   -0.5758    2.7019 C   0  0  0  0  0  0  0  0  0  0  0  0
   -2.4662    0.1472    3.6618 C   0  0  0  0  0  0  0  0  0  0  0  0
   -3.5911    0.0638    0.5926 O   0  0  0  0  0  0  0  0  0  0  0  0
   -4.6966   -0.4593   -0.1694 C   0  0  0  0  0  0  0  0  0  0  0  0
   -4.7477    0.0857   -1.5807 C   0  0  0  0  0  0  0  0  0  0  0  0
    5.7900   -0.4729    1.3548 H   0  0  0  0  0  0  0  0  0  0  0  0
    6.5656   -0.9809   -0.1554 H   0  0  0  0  0  0  0  0  0  0  0  0
    5.9842    0.6812    0.0299 H   0  0  0  0  0  0  0  0  0  0  0  0
    4.2322   -1.8323   -0.0573 H   0  0  0  0  0  0  0  0  0  0  0  0
    4.3952   -0.6368   -1.3697 H   0  0  0  0  0  0  0  0  0  0  0  0
    0.9057    2.8222   -0.5401 H   0  0  0  0  0  0  0  0  0  0  0  0
    0.7367    3.0510    1.2199 H   0  0  0  0  0  0  0  0  0  0  0  0
    3.3611    2.7516   -0.3371 H   0  0  0  0  0  0  0  0  0  0  0  0
    2.7549    4.2495    0.3864 H   0  0  0  0  0  0  0  0  0  0  0  0
    3.2516    2.8970    1.4255 H   0  0  0  0  0  0  0  0  0  0  0  0
    0.0893   -2.8673   -1.4821 H   0  0  0  0  0  0  0  0  0  0  0  0
   -0.0530   -1.0899   -1.7233 H   0  0  0  0  0  0  0  0  0  0  0  0
   -1.9595   -1.5429    2.4038 H   0  0  0  0  0  0  0  0  0  0  0  0
   -0.5504   -0.7214    3.1300 H   0  0  0  0  0  0  0  0  0  0  0  0
   -2.5820   -0.4517    4.5596 H   0  0  0  0  0  0  0  0  0  0  0  0
   -2.0462    1.1137    3.9262 H   0  0  0  0  0  0  0  0  0  0  0  0
   -3.4394    0.3028    3.2037 H   0  0  0  0  0  0  0  0  0  0  0  0
   -4.6168   -1.5496   -0.1785 H   0  0  0  0  0  0  0  0  0  0  0  0
   -5.5718   -0.1540    0.4068 H   0  0  0  0  0  0  0  0  0  0  0  0
   -4.7615    1.1732   -1.5684 H   0  0  0  0  0  0  0  0  0  0  0  0
   -3.8722   -0.2384   -2.1418 H   0  0  0  0  0  0  0  0  0  0  0  0
   -5.6407   -0.2803   -2.0769 H   0  0  0  0  0  0  0  0  0  0  0  0
  1  2  1  0  0  0  0
  2  3  1  0  0  0  0
  3  4  2  0  0  0  0
  4  5  2  0  0  0  0
  4  6  2  0  0  0  0
  6  7  1  0  0  0  0
  7  8  1  0  0  0  0
  4  9  1  0  0  0  0
  9 10  1  0  0  0  0
 10 11  1  0  0  0  0
 11 12  1  0  0  0  0
 12 13  2  0  0  0  0
 12 14  2  0  0  0  0
 14 15  1  0  0  0  0
 15 16  1  0  0  0  0
 12 17  2  0  0  0  0
 17 18  1  0  0  0  0
 18 19  1  0  0  0  0
  1 20  1  0  0  0  0
  1 21  1  0  0  0  0
  1 22  1  0  0  0  0
  2 23  1  0  0  0  0
  2 24  1  0  0  0  0
  7 25  1  0  0  0  0
  7 26  1  0  0  0  0
  8 27  1  0  0  0  0
  8 28  1  0  0  0  0
  8 29  1  0  0  0  0
 10 30  1  0  0  0  0
 10 31  1  0  0  0  0
 15 32  1  0  0  0  0
 15 33  1  0  0  0  0
 16 34  1  0  0  0  0
 16 35  1  0  0  0  0
 16 36  1  0  0  0  0
 18 37  1  0  0  0  0
 18 38  1  0  0  0  0
 19 39  1  0  0  0  0
 19 40  1  0  0  0  0
 19 41  1  0  0  0  0
M  END
