 xtb: 6.7.1 (edcfbbe)
          04092507313D

 38 37  0     0  0            999 V2000
    2.8917   -3.1169    1.2832 C   0  0  0  0  0  0  0  0  0  0  0  0
    2.9697   -1.6012    1.3432 C   0  0  0  0  0  0  0  0  0  0  0  0
    2.7154   -1.0515    0.0344 O   0  0  0  0  0  0  0  0  0  0  0  0
    1.6365   -0.3578   -0.1931 C   0  0  0  0  0  0  0  0  0  0  0  0
    0.8003   -0.0553    0.6483 O   0  0  0  0  0  0  0  0  0  0  0  0
    1.5123    0.0912   -1.6278 C   0  0  0  0  0  0  0  0  0  0  0  0
    0.3212    1.0316   -1.7369 C   0  0  0  0  0  0  0  0  0  0  0  0
    0.3222    1.5506   -2.6990 H   0  0  0  0  0  0  0  0  0  0  0  0
    0.3135    2.0686   -0.6215 C   0  0  0  0  0  0  0  0  0  0  0  0
   -0.6835    2.4597   -0.0606 O   0  0  0  0  0  0  0  0  0  0  0  0
    1.5297    2.5252   -0.3985 O   0  0  0  0  0  0  0  0  0  0  0  0
    1.7011    3.5439    0.6082 C   0  0  0  0  0  0  0  0  0  0  0  0
    2.9687    4.3138    0.2926 C   0  0  0  0  0  0  0  0  0  0  0  0
   -1.2886    0.1698   -1.7559 S   0  0  0  0  0  0  0  0  0  0  0  0
   -1.6580   -0.8207    0.0816 P   0  0  0  0  0  0  0  0  0  0  0  0
   -0.7614   -2.5088    0.5525 S   0  0  0  0  0  0  0  0  0  0  0  0
   -1.9263    0.2346    1.2304 O   0  0  0  0  0  0  0  0  0  0  0  0
   -1.3067    0.2397    2.5134 C   0  0  0  0  0  0  0  0  0  0  0  0
   -3.2099   -1.1108   -0.2140 O   0  0  0  0  0  0  0  0  0  0  0  0
   -3.6264   -2.0967   -1.1619 C   0  0  0  0  0  0  0  0  0  0  0  0
    3.1604   -3.5270    2.2509 H   0  0  0  0  0  0  0  0  0  0  0  0
    1.8792   -3.4303    1.0358 H   0  0  0  0  0  0  0  0  0  0  0  0
    3.5742   -3.4947    0.5282 H   0  0  0  0  0  0  0  0  0  0  0  0
    3.9749   -1.2666    1.6065 H   0  0  0  0  0  0  0  0  0  0  0  0
    2.2380   -1.1951    2.0464 H   0  0  0  0  0  0  0  0  0  0  0  0
    1.3765   -0.7817   -2.2687 H   0  0  0  0  0  0  0  0  0  0  0  0
    2.4337    0.5960   -1.9206 H   0  0  0  0  0  0  0  0  0  0  0  0
    0.8156    4.1868    0.6041 H   0  0  0  0  0  0  0  0  0  0  0  0
    1.7641    3.0431    1.5797 H   0  0  0  0  0  0  0  0  0  0  0  0
    2.8868    4.7858   -0.6819 H   0  0  0  0  0  0  0  0  0  0  0  0
    3.1170    5.0780    1.0482 H   0  0  0  0  0  0  0  0  0  0  0  0
    3.8220    3.6427    0.2892 H   0  0  0  0  0  0  0  0  0  0  0  0
   -0.5732    1.0443    2.5420 H   0  0  0  0  0  0  0  0  0  0  0  0
   -0.8168   -0.7172    2.7057 H   0  0  0  0  0  0  0  0  0  0  0  0
   -2.0998    0.4146    3.2372 H   0  0  0  0  0  0  0  0  0  0  0  0
   -4.6762   -2.2823   -0.9484 H   0  0  0  0  0  0  0  0  0  0  0  0
   -3.0448   -3.0118   -1.0299 H   0  0  0  0  0  0  0  0  0  0  0  0
   -3.5017   -1.7186   -2.1764 H   0  0  0  0  0  0  0  0  0  0  0  0
  1  2  1  0  0  0  0
  2  3  1  0  0  0  0
  3  4  4  0  0  0  0
  4  5  2  0  0  0  0
  4  6  1  0  0  0  0
  6  7  1  0  0  0  0
  7  8  1  0  0  0  0
  7  9  1  0  0  0  0
  9 10  2  0  0  0  0
  9 11  1  0  0  0  0
 11 12  1  0  0  0  0
 12 13  1  0  0  0  0
  7 14  1  0  0  0  0
 14 15  1  0  0  0  0
 15 16  2  0  0  0  0
 15 17  2  0  0  0  0
 17 18  1  0  0  0  0
 15 19  1  0  0  0  0
 19 20  1  0  0  0  0
  1 21  1  0  0  0  0
  1 22  1  0  0  0  0
  1 23  1  0  0  0  0
  2 24  1  0  0  0  0
  2 25  1  0  0  0  0
  6 26  1  0  0  0  0
  6 27  1  0  0  0  0
 12 28  1  0  0  0  0
 12 29  1  0  0  0  0
 13 30  1  0  0  0  0
 13 31  1  0  0  0  0
 13 32  1  0  0  0  0
 18 33  1  0  0  0  0
 18 34  1  0  0  0  0
 18 35  1  0  0  0  0
 20 36  1  0  0  0  0
 20 37  1  0  0  0  0
 20 38  1  0  0  0  0
M  END
