 xtb: 6.7.1 (edcfbbe)
          04092505213D

 41 40  0     0  0            999 V2000
    5.1727   -0.0131   -2.0873 C   0  0  0  0  0  0  0  0  0  0  0  0
    4.9479   -0.0698   -0.5901 C   0  0  0  0  0  0  0  0  0  0  0  0
    3.9141    0.8800   -0.2125 O   0  0  0  0  0  0  0  0  0  0  0  0
    2.5057    0.4503    0.3332 P   0  0  0  0  0  0  0  0  0  0  0  0
    1.3364    1.9868    0.6247 S   0  0  0  0  0  0  0  0  0  0  0  0
    2.9188   -0.3558    1.6429 O   0  0  0  0  0  0  0  0  0  0  0  0
    1.9884   -0.8488    2.6250 C   0  0  0  0  0  0  0  0  0  0  0  0
    1.6594   -2.3090    2.3824 C   0  0  0  0  0  0  0  0  0  0  0  0
    1.8058   -1.0207   -1.0681 S   0  0  0  0  0  0  0  0  0  0  0  0
    0.1174   -0.4359   -1.2233 C   0  0  0  0  0  0  0  0  0  0  0  0
   -0.8703   -0.8584    0.2523 S   0  0  0  0  0  0  0  0  0  0  0  0
   -2.6534    0.0221   -0.4909 P   0  0  0  0  0  0  0  0  0  0  0  0
   -3.0050   -0.2956   -2.3888 S   0  0  0  0  0  0  0  0  0  0  0  0
   -2.5421    1.5746   -0.2429 O   0  0  0  0  0  0  0  0  0  0  0  0
   -2.3994    2.1668    1.0730 C   0  0  0  0  0  0  0  0  0  0  0  0
   -2.0105    3.6173    0.8853 C   0  0  0  0  0  0  0  0  0  0  0  0
   -3.7477   -0.4017    0.5792 O   0  0  0  0  0  0  0  0  0  0  0  0
   -3.9543   -1.7434    1.0663 C   0  0  0  0  0  0  0  0  0  0  0  0
   -4.1601   -2.7461   -0.0488 C   0  0  0  0  0  0  0  0  0  0  0  0
    4.2843   -0.3472   -2.6177 H   0  0  0  0  0  0  0  0  0  0  0  0
    5.4022    1.0047   -2.3904 H   0  0  0  0  0  0  0  0  0  0  0  0
    6.0046   -0.6603   -2.3458 H   0  0  0  0  0  0  0  0  0  0  0  0
    5.8358    0.2459   -0.0405 H   0  0  0  0  0  0  0  0  0  0  0  0
    4.6512   -1.0701   -0.2693 H   0  0  0  0  0  0  0  0  0  0  0  0
    2.5038   -0.7132    3.5778 H   0  0  0  0  0  0  0  0  0  0  0  0
    1.0869   -0.2288    2.6074 H   0  0  0  0  0  0  0  0  0  0  0  0
    2.5743   -2.8917    2.3245 H   0  0  0  0  0  0  0  0  0  0  0  0
    1.0528   -2.6745    3.2043 H   0  0  0  0  0  0  0  0  0  0  0  0
    1.1015   -2.4291    1.4564 H   0  0  0  0  0  0  0  0  0  0  0  0
   -0.3222   -0.9229   -2.0930 H   0  0  0  0  0  0  0  0  0  0  0  0
    0.1170    0.6498   -1.3378 H   0  0  0  0  0  0  0  0  0  0  0  0
   -3.3555    2.0663    1.5895 H   0  0  0  0  0  0  0  0  0  0  0  0
   -1.6252    1.6220    1.6209 H   0  0  0  0  0  0  0  0  0  0  0  0
   -1.9865    4.1069    1.8532 H   0  0  0  0  0  0  0  0  0  0  0  0
   -1.0237    3.6820    0.4327 H   0  0  0  0  0  0  0  0  0  0  0  0
   -2.7300    4.1158    0.2422 H   0  0  0  0  0  0  0  0  0  0  0  0
   -3.0911   -2.0169    1.6794 H   0  0  0  0  0  0  0  0  0  0  0  0
   -4.8431   -1.6526    1.6931 H   0  0  0  0  0  0  0  0  0  0  0  0
   -4.9781   -2.4344   -0.6940 H   0  0  0  0  0  0  0  0  0  0  0  0
   -3.2582   -2.8255   -0.6542 H   0  0  0  0  0  0  0  0  0  0  0  0
   -4.3874   -3.7178    0.3775 H   0  0  0  0  0  0  0  0  0  0  0  0
  1  2  1  0  0  0  0
  2  3  1  0  0  0  0
  3  4  2  0  0  0  0
  4  5  2  0  0  0  0
  4  6  2  0  0  0  0
  6  7  1  0  0  0  0
  7  8  1  0  0  0  0
  4  9  1  0  0  0  0
  9 10  1  0  0  0  0
 10 11  1  0  0  0  0
 11 12  1  0  0  0  0
 12 13  2  0  0  0  0
 12 14  2  0  0  0  0
 14 15  1  0  0  0  0
 15 16  1  0  0  0  0
 12 17  2  0  0  0  0
 17 18  1  0  0  0  0
 18 19  1  0  0  0  0
  1 20  1  0  0  0  0
  1 21  1  0  0  0  0
  1 22  1  0  0  0  0
  2 23  1  0  0  0  0
  2 24  1  0  0  0  0
  7 25  1  0  0  0  0
  7 26  1  0  0  0  0
  8 27  1  0  0  0  0
  8 28  1  0  0  0  0
  8 29  1  0  0  0  0
 10 30  1  0  0  0  0
 10 31  1  0  0  0  0
 15 32  1  0  0  0  0
 15 33  1  0  0  0  0
 16 34  1  0  0  0  0
 16 35  1  0  0  0  0
 16 36  1  0  0  0  0
 18 37  1  0  0  0  0
 18 38  1  0  0  0  0
 19 39  1  0  0  0  0
 19 40  1  0  0  0  0
 19 41  1  0  0  0  0
M  END
