 xtb: 6.7.1 (edcfbbe)
          04092505213D

 41 40  0     0  0            999 V2000
    3.7991    1.3836   -1.8206 C   0  0  0  0  0  0  0  0  0  0  0  0
    2.5356    0.6195   -2.1512 C   0  0  0  0  0  0  0  0  0  0  0  0
    2.3194   -0.4785   -1.2428 O   0  0  0  0  0  0  0  0  0  0  0  0
    2.0012   -0.2706    0.2906 P   0  0  0  0  0  0  0  0  0  0  0  0
    0.9013    1.2877    0.7743 S   0  0  0  0  0  0  0  0  0  0  0  0
    3.4496   -0.2341    0.9392 O   0  0  0  0  0  0  0  0  0  0  0  0
    3.6574    0.0578    2.3358 C   0  0  0  0  0  0  0  0  0  0  0  0
    5.0997    0.4875    2.5136 C   0  0  0  0  0  0  0  0  0  0  0  0
    1.3822   -2.2119    0.8260 S   0  0  0  0  0  0  0  0  0  0  0  0
   -0.3041   -2.2907    0.1558 C   0  0  0  0  0  0  0  0  0  0  0  0
   -1.4873   -1.2373    1.0499 S   0  0  0  0  0  0  0  0  0  0  0  0
   -2.0338    0.0622   -0.5251 P   0  0  0  0  0  0  0  0  0  0  0  0
   -0.9319    0.0892   -2.1396 S   0  0  0  0  0  0  0  0  0  0  0  0
   -2.2466    1.5103    0.0733 O   0  0  0  0  0  0  0  0  0  0  0  0
   -3.1503    1.8157    1.1633 C   0  0  0  0  0  0  0  0  0  0  0  0
   -2.4324    1.7936    2.4977 C   0  0  0  0  0  0  0  0  0  0  0  0
   -3.4982   -0.5461   -0.7690 O   0  0  0  0  0  0  0  0  0  0  0  0
   -4.2045   -0.3790   -2.0118 C   0  0  0  0  0  0  0  0  0  0  0  0
   -4.6844    1.0456   -2.2055 C   0  0  0  0  0  0  0  0  0  0  0  0
    4.6446    0.7029   -1.7686 H   0  0  0  0  0  0  0  0  0  0  0  0
    3.9775    2.1300   -2.5883 H   0  0  0  0  0  0  0  0  0  0  0  0
    3.6864    1.8828   -0.8590 H   0  0  0  0  0  0  0  0  0  0  0  0
    2.5876    0.1382   -3.1286 H   0  0  0  0  0  0  0  0  0  0  0  0
    1.6594    1.2753   -2.1190 H   0  0  0  0  0  0  0  0  0  0  0  0
    2.9608    0.8491    2.6333 H   0  0  0  0  0  0  0  0  0  0  0  0
    3.4372   -0.8472    2.9077 H   0  0  0  0  0  0  0  0  0  0  0  0
    5.2955    1.3929    1.9462 H   0  0  0  0  0  0  0  0  0  0  0  0
    5.2867    0.6766    3.5655 H   0  0  0  0  0  0  0  0  0  0  0  0
    5.7639   -0.2976    2.1643 H   0  0  0  0  0  0  0  0  0  0  0  0
   -0.6137   -3.3250    0.2790 H   0  0  0  0  0  0  0  0  0  0  0  0
   -0.2902   -1.9979   -0.8968 H   0  0  0  0  0  0  0  0  0  0  0  0
   -3.5090    2.8193    0.9274 H   0  0  0  0  0  0  0  0  0  0  0  0
   -3.9809    1.1051    1.1464 H   0  0  0  0  0  0  0  0  0  0  0  0
   -2.1615    0.7775    2.7753 H   0  0  0  0  0  0  0  0  0  0  0  0
   -1.5232    2.3870    2.4354 H   0  0  0  0  0  0  0  0  0  0  0  0
   -3.0847    2.2093    3.2589 H   0  0  0  0  0  0  0  0  0  0  0  0
   -3.5395   -0.6738   -2.8298 H   0  0  0  0  0  0  0  0  0  0  0  0
   -5.0358   -1.0814   -1.9378 H   0  0  0  0  0  0  0  0  0  0  0  0
   -5.3241    1.3486   -1.3806 H   0  0  0  0  0  0  0  0  0  0  0  0
   -3.8290    1.7192   -2.2572 H   0  0  0  0  0  0  0  0  0  0  0  0
   -5.2410    1.1129   -3.1350 H   0  0  0  0  0  0  0  0  0  0  0  0
  1  2  1  0  0  0  0
  2  3  1  0  0  0  0
  3  4  2  0  0  0  0
  4  5  2  0  0  0  0
  4  6  2  0  0  0  0
  6  7  1  0  0  0  0
  7  8  1  0  0  0  0
  4  9  1  0  0  0  0
  9 10  1  0  0  0  0
 10 11  1  0  0  0  0
 11 12  1  0  0  0  0
 12 13  2  0  0  0  0
 12 14  2  0  0  0  0
 14 15  1  0  0  0  0
 15 16  1  0  0  0  0
 12 17  1  0  0  0  0
 17 18  1  0  0  0  0
 18 19  1  0  0  0  0
  1 20  1  0  0  0  0
  1 21  1  0  0  0  0
  1 22  1  0  0  0  0
  2 23  1  0  0  0  0
  2 24  1  0  0  0  0
  7 25  1  0  0  0  0
  7 26  1  0  0  0  0
  8 27  1  0  0  0  0
  8 28  1  0  0  0  0
  8 29  1  0  0  0  0
 10 30  1  0  0  0  0
 10 31  1  0  0  0  0
 15 32  1  0  0  0  0
 15 33  1  0  0  0  0
 16 34  1  0  0  0  0
 16 35  1  0  0  0  0
 16 36  1  0  0  0  0
 18 37  1  0  0  0  0
 18 38  1  0  0  0  0
 19 39  1  0  0  0  0
 19 40  1  0  0  0  0
 19 41  1  0  0  0  0
M  END
