 xtb: 6.7.1 (edcfbbe)
          04092505203D

 41 40  0     0  0            999 V2000
    0.3266    0.8239    3.2682 C   0  0  0  0  0  0  0  0  0  0  0  0
    1.5862    0.8618    2.4278 C   0  0  0  0  0  0  0  0  0  0  0  0
    1.7454   -0.4323    1.7904 O   0  0  0  0  0  0  0  0  0  0  0  0
    2.4161   -0.6042    0.3743 P   0  0  0  0  0  0  0  0  0  0  0  0
    2.6765   -2.4827   -0.0970 S   0  0  0  0  0  0  0  0  0  0  0  0
    3.7346    0.2712    0.5338 O   0  0  0  0  0  0  0  0  0  0  0  0
    4.8722    0.1352   -0.3382 C   0  0  0  0  0  0  0  0  0  0  0  0
    4.5613    0.5460   -1.7626 C   0  0  0  0  0  0  0  0  0  0  0  0
    1.2079    0.5374   -0.9676 S   0  0  0  0  0  0  0  0  0  0  0  0
    0.0726   -0.8056   -1.3787 C   0  0  0  0  0  0  0  0  0  0  0  0
   -0.9966   -1.2696    0.0073 S   0  0  0  0  0  0  0  0  0  0  0  0
   -2.4099    0.2850   -0.2537 P   0  0  0  0  0  0  0  0  0  0  0  0
   -2.8514    0.7625   -2.1086 S   0  0  0  0  0  0  0  0  0  0  0  0
   -1.8144    1.4817    0.5941 O   0  0  0  0  0  0  0  0  0  0  0  0
   -1.9583    2.8779    0.2504 C   0  0  0  0  0  0  0  0  0  0  0  0
   -0.6121    3.5656    0.3521 C   0  0  0  0  0  0  0  0  0  0  0  0
   -3.6057   -0.1449    0.6998 O   0  0  0  0  0  0  0  0  0  0  0  0
   -4.2570   -1.4279    0.7046 C   0  0  0  0  0  0  0  0  0  0  0  0
   -4.7314   -1.8548   -0.6691 C   0  0  0  0  0  0  0  0  0  0  0  0
   -0.5501    0.7082    2.6352 H   0  0  0  0  0  0  0  0  0  0  0  0
    0.3694   -0.0127    3.9599 H   0  0  0  0  0  0  0  0  0  0  0  0
    0.2432    1.7498    3.8285 H   0  0  0  0  0  0  0  0  0  0  0  0
    2.4742    1.0286    3.0401 H   0  0  0  0  0  0  0  0  0  0  0  0
    1.5317    1.6317    1.6525 H   0  0  0  0  0  0  0  0  0  0  0  0
    5.6223    0.7852    0.1145 H   0  0  0  0  0  0  0  0  0  0  0  0
    5.2093   -0.9051   -0.3029 H   0  0  0  0  0  0  0  0  0  0  0  0
    3.8643   -0.1604   -2.2110 H   0  0  0  0  0  0  0  0  0  0  0  0
    4.1189    1.5388   -1.7842 H   0  0  0  0  0  0  0  0  0  0  0  0
    5.4789    0.5472   -2.3422 H   0  0  0  0  0  0  0  0  0  0  0  0
    0.6484   -1.6935   -1.6405 H   0  0  0  0  0  0  0  0  0  0  0  0
   -0.5430   -0.4648   -2.2128 H   0  0  0  0  0  0  0  0  0  0  0  0
   -2.3639    2.9515   -0.7644 H   0  0  0  0  0  0  0  0  0  0  0  0
   -2.6753    3.2983    0.9583 H   0  0  0  0  0  0  0  0  0  0  0  0
   -0.7384    4.6177    0.1178 H   0  0  0  0  0  0  0  0  0  0  0  0
   -0.2172    3.4677    1.3592 H   0  0  0  0  0  0  0  0  0  0  0  0
    0.0893    3.1260   -0.3532 H   0  0  0  0  0  0  0  0  0  0  0  0
   -3.5597   -2.1618    1.1188 H   0  0  0  0  0  0  0  0  0  0  0  0
   -5.0949   -1.2871    1.3899 H   0  0  0  0  0  0  0  0  0  0  0  0
   -3.8795   -2.0202   -1.3276 H   0  0  0  0  0  0  0  0  0  0  0  0
   -5.2954   -2.7782   -0.5845 H   0  0  0  0  0  0  0  0  0  0  0  0
   -5.3631   -1.0862   -1.1084 H   0  0  0  0  0  0  0  0  0  0  0  0
  1  2  1  0  0  0  0
  2  3  1  0  0  0  0
  3  4  2  0  0  0  0
  4  5  2  0  0  0  0
  4  6  2  0  0  0  0
  6  7  1  0  0  0  0
  7  8  1  0  0  0  0
  4  9  1  0  0  0  0
  9 10  1  0  0  0  0
 10 11  1  0  0  0  0
 11 12  1  0  0  0  0
 12 13  2  0  0  0  0
 12 14  2  0  0  0  0
 14 15  1  0  0  0  0
 15 16  1  0  0  0  0
 12 17  2  0  0  0  0
 17 18  1  0  0  0  0
 18 19  1  0  0  0  0
  1 20  1  0  0  0  0
  1 21  1  0  0  0  0
  1 22  1  0  0  0  0
  2 23  1  0  0  0  0
  2 24  1  0  0  0  0
  7 25  1  0  0  0  0
  7 26  1  0  0  0  0
  8 27  1  0  0  0  0
  8 28  1  0  0  0  0
  8 29  1  0  0  0  0
 10 30  1  0  0  0  0
 10 31  1  0  0  0  0
 15 32  1  0  0  0  0
 15 33  1  0  0  0  0
 16 34  1  0  0  0  0
 16 35  1  0  0  0  0
 16 36  1  0  0  0  0
 18 37  1  0  0  0  0
 18 38  1  0  0  0  0
 19 39  1  0  0  0  0
 19 40  1  0  0  0  0
 19 41  1  0  0  0  0
M  END
