 xtb: 6.7.1 (edcfbbe)
          04092505213D

 41 40  0     0  0            999 V2000
    0.4663   -2.5430    2.0019 C   0  0  0  0  0  0  0  0  0  0  0  0
    1.1857   -2.3020    0.6912 C   0  0  0  0  0  0  0  0  0  0  0  0
    1.7725   -0.9897    0.7448 O   0  0  0  0  0  0  0  0  0  0  0  0
    2.4368   -0.3448   -0.5534 P   0  0  0  0  0  0  0  0  0  0  0  0
    3.6222   -1.5583   -1.5326 S   0  0  0  0  0  0  0  0  0  0  0  0
    3.0750    0.9805    0.0271 O   0  0  0  0  0  0  0  0  0  0  0  0
    4.4342    1.0095    0.5171 C   0  0  0  0  0  0  0  0  0  0  0  0
    4.5745    0.2416    1.8137 C   0  0  0  0  0  0  0  0  0  0  0  0
    0.8408    0.4626   -1.6806 S   0  0  0  0  0  0  0  0  0  0  0  0
    0.2935    1.7867   -0.5495 C   0  0  0  0  0  0  0  0  0  0  0  0
   -0.4382    1.1910    0.9879 S   0  0  0  0  0  0  0  0  0  0  0  0
   -2.2034    0.4166    0.1267 P   0  0  0  0  0  0  0  0  0  0  0  0
   -2.9918    1.4585   -1.3439 S   0  0  0  0  0  0  0  0  0  0  0  0
   -3.1193    0.0908    1.3821 O   0  0  0  0  0  0  0  0  0  0  0  0
   -3.4312    1.0073    2.4480 C   0  0  0  0  0  0  0  0  0  0  0  0
   -3.9666    2.3335    1.9495 C   0  0  0  0  0  0  0  0  0  0  0  0
   -1.7524   -1.0472   -0.2959 O   0  0  0  0  0  0  0  0  0  0  0  0
   -2.4202   -1.7738   -1.3427 C   0  0  0  0  0  0  0  0  0  0  0  0
   -3.7901   -2.2385   -0.8961 C   0  0  0  0  0  0  0  0  0  0  0  0
   -0.3493   -1.8325    2.1116 H   0  0  0  0  0  0  0  0  0  0  0  0
    0.0668   -3.5517    2.0088 H   0  0  0  0  0  0  0  0  0  0  0  0
    1.1557   -2.4201    2.8317 H   0  0  0  0  0  0  0  0  0  0  0  0
    0.4923   -2.3458   -0.1549 H   0  0  0  0  0  0  0  0  0  0  0  0
    1.9874   -3.0277    0.5224 H   0  0  0  0  0  0  0  0  0  0  0  0
    5.0892    0.5934   -0.2548 H   0  0  0  0  0  0  0  0  0  0  0  0
    4.6406    2.0724    0.6484 H   0  0  0  0  0  0  0  0  0  0  0  0
    4.4049   -0.8189    1.6337 H   0  0  0  0  0  0  0  0  0  0  0  0
    5.5777    0.3775    2.2055 H   0  0  0  0  0  0  0  0  0  0  0  0
    3.8482    0.5966    2.5401 H   0  0  0  0  0  0  0  0  0  0  0  0
   -0.4564    2.3448   -1.1124 H   0  0  0  0  0  0  0  0  0  0  0  0
    1.1414    2.4113   -0.2855 H   0  0  0  0  0  0  0  0  0  0  0  0
   -4.1780    0.4710    3.0363 H   0  0  0  0  0  0  0  0  0  0  0  0
   -2.5259    1.1563    3.0431 H   0  0  0  0  0  0  0  0  0  0  0  0
   -4.8258    2.1782    1.3013 H   0  0  0  0  0  0  0  0  0  0  0  0
   -4.2623    2.9440    2.7967 H   0  0  0  0  0  0  0  0  0  0  0  0
   -3.1993    2.8603    1.3837 H   0  0  0  0  0  0  0  0  0  0  0  0
   -2.4948   -1.1289   -2.2249 H   0  0  0  0  0  0  0  0  0  0  0  0
   -1.7557   -2.6117   -1.5597 H   0  0  0  0  0  0  0  0  0  0  0  0
   -4.2453   -2.8329   -1.6819 H   0  0  0  0  0  0  0  0  0  0  0  0
   -3.7091   -2.8321    0.0103 H   0  0  0  0  0  0  0  0  0  0  0  0
   -4.4194   -1.3723   -0.6938 H   0  0  0  0  0  0  0  0  0  0  0  0
  1  2  1  0  0  0  0
  2  3  1  0  0  0  0
  3  4  1  0  0  0  0
  4  5  2  0  0  0  0
  4  6  2  0  0  0  0
  6  7  1  0  0  0  0
  7  8  1  0  0  0  0
  4  9  1  0  0  0  0
  9 10  1  0  0  0  0
 10 11  1  0  0  0  0
 11 12  1  0  0  0  0
 12 13  2  0  0  0  0
 12 14  2  0  0  0  0
 14 15  1  0  0  0  0
 15 16  1  0  0  0  0
 12 17  2  0  0  0  0
 17 18  1  0  0  0  0
 18 19  1  0  0  0  0
  1 20  1  0  0  0  0
  1 21  1  0  0  0  0
  1 22  1  0  0  0  0
  2 23  1  0  0  0  0
  2 24  1  0  0  0  0
  7 25  1  0  0  0  0
  7 26  1  0  0  0  0
  8 27  1  0  0  0  0
  8 28  1  0  0  0  0
  8 29  1  0  0  0  0
 10 30  1  0  0  0  0
 10 31  1  0  0  0  0
 15 32  1  0  0  0  0
 15 33  1  0  0  0  0
 16 34  1  0  0  0  0
 16 35  1  0  0  0  0
 16 36  1  0  0  0  0
 18 37  1  0  0  0  0
 18 38  1  0  0  0  0
 19 39  1  0  0  0  0
 19 40  1  0  0  0  0
 19 41  1  0  0  0  0
M  END
