 xtb: 6.7.1 (edcfbbe)
          04092505213D

 41 40  0     0  0            999 V2000
    1.7399    2.3979    1.4579 C   0  0  0  0  0  0  0  0  0  0  0  0
    3.1218    1.8005    1.6281 C   0  0  0  0  0  0  0  0  0  0  0  0
    3.4744    0.9416    0.5317 O   0  0  0  0  0  0  0  0  0  0  0  0
    2.8069   -0.4845    0.3086 P   0  0  0  0  0  0  0  0  0  0  0  0
    2.5099   -1.5253    1.9495 S   0  0  0  0  0  0  0  0  0  0  0  0
    3.7840   -1.1334   -0.7546 O   0  0  0  0  0  0  0  0  0  0  0  0
    4.9664   -1.8672   -0.3740 C   0  0  0  0  0  0  0  0  0  0  0  0
    6.0146   -0.9766    0.2602 C   0  0  0  0  0  0  0  0  0  0  0  0
    1.1569   -0.1758   -0.9825 S   0  0  0  0  0  0  0  0  0  0  0  0
   -0.1112   -1.1065   -0.0705 C   0  0  0  0  0  0  0  0  0  0  0  0
   -1.1783   -0.0599    0.9651 S   0  0  0  0  0  0  0  0  0  0  0  0
   -2.8432    0.1247   -0.3307 P   0  0  0  0  0  0  0  0  0  0  0  0
   -2.7440   -0.7519   -2.0873 S   0  0  0  0  0  0  0  0  0  0  0  0
   -3.2088    1.6717   -0.3742 O   0  0  0  0  0  0  0  0  0  0  0  0
   -2.6792    2.5671   -1.3652 C   0  0  0  0  0  0  0  0  0  0  0  0
   -1.2085    2.8538   -1.1413 C   0  0  0  0  0  0  0  0  0  0  0  0
   -3.9418   -0.4367    0.6614 O   0  0  0  0  0  0  0  0  0  0  0  0
   -5.2432   -0.8682    0.2126 C   0  0  0  0  0  0  0  0  0  0  0  0
   -6.0860    0.2837   -0.2941 C   0  0  0  0  0  0  0  0  0  0  0  0
    1.6551    2.8716    0.4831 H   0  0  0  0  0  0  0  0  0  0  0  0
    0.9809    1.6200    1.5418 H   0  0  0  0  0  0  0  0  0  0  0  0
    1.5692    3.1359    2.2351 H   0  0  0  0  0  0  0  0  0  0  0  0
    3.1807    1.2225    2.5563 H   0  0  0  0  0  0  0  0  0  0  0  0
    3.8958    2.5693    1.6190 H   0  0  0  0  0  0  0  0  0  0  0  0
    4.6703   -2.6659    0.3138 H   0  0  0  0  0  0  0  0  0  0  0  0
    5.3163   -2.2976   -1.3133 H   0  0  0  0  0  0  0  0  0  0  0  0
    5.6616   -0.6138    1.2244 H   0  0  0  0  0  0  0  0  0  0  0  0
    6.9262   -1.5467    0.4105 H   0  0  0  0  0  0  0  0  0  0  0  0
    6.2208   -0.1249   -0.3825 H   0  0  0  0  0  0  0  0  0  0  0  0
    0.3821   -1.8144    0.5956 H   0  0  0  0  0  0  0  0  0  0  0  0
   -0.7283   -1.6134   -0.8126 H   0  0  0  0  0  0  0  0  0  0  0  0
   -2.8404    2.1263   -2.3546 H   0  0  0  0  0  0  0  0  0  0  0  0
   -3.2853    3.4677   -1.2562 H   0  0  0  0  0  0  0  0  0  0  0  0
   -0.6180    1.9563   -1.3257 H   0  0  0  0  0  0  0  0  0  0  0  0
   -0.8852    3.6302   -1.8273 H   0  0  0  0  0  0  0  0  0  0  0  0
   -1.0434    3.1821   -0.1182 H   0  0  0  0  0  0  0  0  0  0  0  0
   -5.1060   -1.6208   -0.5707 H   0  0  0  0  0  0  0  0  0  0  0  0
   -5.6812   -1.3306    1.0983 H   0  0  0  0  0  0  0  0  0  0  0  0
   -6.1234    1.0756    0.4492 H   0  0  0  0  0  0  0  0  0  0  0  0
   -5.6586    0.6824   -1.2130 H   0  0  0  0  0  0  0  0  0  0  0  0
   -7.0918   -0.0703   -0.4978 H   0  0  0  0  0  0  0  0  0  0  0  0
  1  2  1  0  0  0  0
  2  3  1  0  0  0  0
  3  4  2  0  0  0  0
  4  5  2  0  0  0  0
  4  6  2  0  0  0  0
  6  7  1  0  0  0  0
  7  8  1  0  0  0  0
  4  9  1  0  0  0  0
  9 10  1  0  0  0  0
 10 11  1  0  0  0  0
 11 12  1  0  0  0  0
 12 13  2  0  0  0  0
 12 14  2  0  0  0  0
 14 15  1  0  0  0  0
 15 16  1  0  0  0  0
 12 17  2  0  0  0  0
 17 18  1  0  0  0  0
 18 19  1  0  0  0  0
  1 20  1  0  0  0  0
  1 21  1  0  0  0  0
  1 22  1  0  0  0  0
  2 23  1  0  0  0  0
  2 24  1  0  0  0  0
  7 25  1  0  0  0  0
  7 26  1  0  0  0  0
  8 27  1  0  0  0  0
  8 28  1  0  0  0  0
  8 29  1  0  0  0  0
 10 30  1  0  0  0  0
 10 31  1  0  0  0  0
 15 32  1  0  0  0  0
 15 33  1  0  0  0  0
 16 34  1  0  0  0  0
 16 35  1  0  0  0  0
 16 36  1  0  0  0  0
 18 37  1  0  0  0  0
 18 38  1  0  0  0  0
 19 39  1  0  0  0  0
 19 40  1  0  0  0  0
 19 41  1  0  0  0  0
M  END
