 xtb: 6.7.1 (edcfbbe)
          04092505213D

 41 40  0     0  0            999 V2000
    3.7790   -0.4343    2.0518 C   0  0  0  0  0  0  0  0  0  0  0  0
    4.2276   -0.7694    0.6449 C   0  0  0  0  0  0  0  0  0  0  0  0
    3.6096    0.0695   -0.3567 O   0  0  0  0  0  0  0  0  0  0  0  0
    2.0524    0.2725   -0.5968 P   0  0  0  0  0  0  0  0  0  0  0  0
    1.7524    0.9212   -2.4160 S   0  0  0  0  0  0  0  0  0  0  0  0
    1.5222    1.2253    0.5751 O   0  0  0  0  0  0  0  0  0  0  0  0
    1.4579    2.6501    0.3924 C   0  0  0  0  0  0  0  0  0  0  0  0
    2.8385    3.2716    0.3612 C   0  0  0  0  0  0  0  0  0  0  0  0
    1.2165   -1.5941   -0.0703 S   0  0  0  0  0  0  0  0  0  0  0  0
   -0.0214   -1.7746   -1.3954 C   0  0  0  0  0  0  0  0  0  0  0  0
   -1.6613   -2.1853   -0.7590 S   0  0  0  0  0  0  0  0  0  0  0  0
   -2.0349   -0.3872    0.2815 P   0  0  0  0  0  0  0  0  0  0  0  0
   -1.5090    1.2590   -0.6627 S   0  0  0  0  0  0  0  0  0  0  0  0
   -1.3284   -0.7336    1.6545 O   0  0  0  0  0  0  0  0  0  0  0  0
   -1.6367   -0.1249    2.9276 C   0  0  0  0  0  0  0  0  0  0  0  0
   -1.1063    1.2910    3.0172 C   0  0  0  0  0  0  0  0  0  0  0  0
   -3.5692   -0.4367    0.6874 O   0  0  0  0  0  0  0  0  0  0  0  0
   -4.6064    0.0865   -0.1603 C   0  0  0  0  0  0  0  0  0  0  0  0
   -4.8052   -0.7618   -1.3993 C   0  0  0  0  0  0  0  0  0  0  0  0
    3.9904    0.6069    2.2811 H   0  0  0  0  0  0  0  0  0  0  0  0
    2.7090   -0.6098    2.1532 H   0  0  0  0  0  0  0  0  0  0  0  0
    4.3086   -1.0706    2.7539 H   0  0  0  0  0  0  0  0  0  0  0  0
    4.0003   -1.8110    0.4044 H   0  0  0  0  0  0  0  0  0  0  0  0
    5.2932   -0.5807    0.5045 H   0  0  0  0  0  0  0  0  0  0  0  0
    0.9150    2.8589   -0.5357 H   0  0  0  0  0  0  0  0  0  0  0  0
    0.8683    3.0057    1.2386 H   0  0  0  0  0  0  0  0  0  0  0  0
    3.4026    2.8674   -0.4794 H   0  0  0  0  0  0  0  0  0  0  0  0
    2.7450    4.3462    0.2405 H   0  0  0  0  0  0  0  0  0  0  0  0
    3.3728    3.0566    1.2828 H   0  0  0  0  0  0  0  0  0  0  0  0
    0.2721   -2.6082   -2.0285 H   0  0  0  0  0  0  0  0  0  0  0  0
   -0.0572   -0.8428   -1.9677 H   0  0  0  0  0  0  0  0  0  0  0  0
   -2.7185   -0.1537    3.0740 H   0  0  0  0  0  0  0  0  0  0  0  0
   -1.1459   -0.7826    3.6469 H   0  0  0  0  0  0  0  0  0  0  0  0
   -0.0373    1.2985    2.8175 H   0  0  0  0  0  0  0  0  0  0  0  0
   -1.6014    1.9248    2.2826 H   0  0  0  0  0  0  0  0  0  0  0  0
   -1.2913    1.6852    4.0114 H   0  0  0  0  0  0  0  0  0  0  0  0
   -5.4917    0.0845    0.4769 H   0  0  0  0  0  0  0  0  0  0  0  0
   -4.3442    1.1135   -0.4346 H   0  0  0  0  0  0  0  0  0  0  0  0
   -4.9475   -1.8039   -1.1249 H   0  0  0  0  0  0  0  0  0  0  0  0
   -5.6757   -0.4075   -1.9420 H   0  0  0  0  0  0  0  0  0  0  0  0
   -3.9320   -0.6868   -2.0461 H   0  0  0  0  0  0  0  0  0  0  0  0
  1  2  1  0  0  0  0
  2  3  1  0  0  0  0
  3  4  2  0  0  0  0
  4  5  2  0  0  0  0
  4  6  1  0  0  0  0
  6  7  1  0  0  0  0
  7  8  1  0  0  0  0
  4  9  1  0  0  0  0
  9 10  1  0  0  0  0
 10 11  1  0  0  0  0
 11 12  1  0  0  0  0
 12 13  2  0  0  0  0
 12 14  2  0  0  0  0
 14 15  1  0  0  0  0
 15 16  1  0  0  0  0
 12 17  2  0  0  0  0
 17 18  1  0  0  0  0
 18 19  1  0  0  0  0
  1 20  1  0  0  0  0
  1 21  1  0  0  0  0
  1 22  1  0  0  0  0
  2 23  1  0  0  0  0
  2 24  1  0  0  0  0
  7 25  1  0  0  0  0
  7 26  1  0  0  0  0
  8 27  1  0  0  0  0
  8 28  1  0  0  0  0
  8 29  1  0  0  0  0
 10 30  1  0  0  0  0
 10 31  1  0  0  0  0
 15 32  1  0  0  0  0
 15 33  1  0  0  0  0
 16 34  1  0  0  0  0
 16 35  1  0  0  0  0
 16 36  1  0  0  0  0
 18 37  1  0  0  0  0
 18 38  1  0  0  0  0
 19 39  1  0  0  0  0
 19 40  1  0  0  0  0
 19 41  1  0  0  0  0
M  END
