 xtb: 6.7.1 (edcfbbe)
          04092505213D

 41 40  0     0  0            999 V2000
    2.9760   -2.9941   -1.3185 C   0  0  0  0  0  0  0  0  0  0  0  0
    4.0812   -2.2223   -0.6299 C   0  0  0  0  0  0  0  0  0  0  0  0
    3.8938   -0.7880   -0.7145 O   0  0  0  0  0  0  0  0  0  0  0  0
    2.7016    0.0303   -0.0961 P   0  0  0  0  0  0  0  0  0  0  0  0
    3.1893    1.9244    0.0068 S   0  0  0  0  0  0  0  0  0  0  0  0
    2.4569   -0.7677    1.2605 O   0  0  0  0  0  0  0  0  0  0  0  0
    1.3539   -0.5836    2.1631 C   0  0  0  0  0  0  0  0  0  0  0  0
    1.4473    0.7178    2.9339 C   0  0  0  0  0  0  0  0  0  0  0  0
    0.9797   -0.3759   -1.3104 S   0  0  0  0  0  0  0  0  0  0  0  0
    0.2811    1.2856   -1.3710 C   0  0  0  0  0  0  0  0  0  0  0  0
   -0.7100    1.7025    0.0888 S   0  0  0  0  0  0  0  0  0  0  0  0
   -2.2849    0.3487   -0.3256 P   0  0  0  0  0  0  0  0  0  0  0  0
   -2.8299    0.1443   -2.1890 S   0  0  0  0  0  0  0  0  0  0  0  0
   -3.4707    0.8634    0.5873 O   0  0  0  0  0  0  0  0  0  0  0  0
   -3.3080    1.0756    2.0138 C   0  0  0  0  0  0  0  0  0  0  0  0
   -4.6873    1.2725    2.6071 C   0  0  0  0  0  0  0  0  0  0  0  0
   -1.7035   -0.9688    0.3788 O   0  0  0  0  0  0  0  0  0  0  0  0
   -2.0580   -2.2891   -0.0751 C   0  0  0  0  0  0  0  0  0  0  0  0
   -3.4837   -2.6343    0.3037 C   0  0  0  0  0  0  0  0  0  0  0  0
    3.2154   -4.0527   -1.2973 H   0  0  0  0  0  0  0  0  0  0  0  0
    2.0271   -2.8350   -0.8090 H   0  0  0  0  0  0  0  0  0  0  0  0
    2.8724   -2.6708   -2.3511 H   0  0  0  0  0  0  0  0  0  0  0  0
    5.0434   -2.3747   -1.1212 H   0  0  0  0  0  0  0  0  0  0  0  0
    4.1542   -2.4947    0.4244 H   0  0  0  0  0  0  0  0  0  0  0  0
    0.4187   -0.6360    1.5973 H   0  0  0  0  0  0  0  0  0  0  0  0
    1.4254   -1.4437    2.8320 H   0  0  0  0  0  0  0  0  0  0  0  0
    2.4139    0.7936    3.4251 H   0  0  0  0  0  0  0  0  0  0  0  0
    1.3310    1.5684    2.2650 H   0  0  0  0  0  0  0  0  0  0  0  0
    0.6607    0.7489    3.6809 H   0  0  0  0  0  0  0  0  0  0  0  0
   -0.3521    1.3302   -2.2568 H   0  0  0  0  0  0  0  0  0  0  0  0
    1.0900    2.0166   -1.4142 H   0  0  0  0  0  0  0  0  0  0  0  0
   -2.8046    0.2050    2.4410 H   0  0  0  0  0  0  0  0  0  0  0  0
   -2.6801    1.9594    2.1528 H   0  0  0  0  0  0  0  0  0  0  0  0
   -5.1745    2.1227    2.1387 H   0  0  0  0  0  0  0  0  0  0  0  0
   -5.2972    0.3887    2.4437 H   0  0  0  0  0  0  0  0  0  0  0  0
   -4.5938    1.4543    3.6729 H   0  0  0  0  0  0  0  0  0  0  0  0
   -1.9225   -2.3323   -1.1600 H   0  0  0  0  0  0  0  0  0  0  0  0
   -1.3358   -2.9439    0.4141 H   0  0  0  0  0  0  0  0  0  0  0  0
   -3.6175   -2.5735    1.3807 H   0  0  0  0  0  0  0  0  0  0  0  0
   -4.1684   -1.9370   -0.1791 H   0  0  0  0  0  0  0  0  0  0  0  0
   -3.7128   -3.6410   -0.0310 H   0  0  0  0  0  0  0  0  0  0  0  0
  1  2  1  0  0  0  0
  2  3  1  0  0  0  0
  3  4  2  0  0  0  0
  4  5  2  0  0  0  0
  4  6  2  0  0  0  0
  6  7  1  0  0  0  0
  7  8  1  0  0  0  0
  4  9  1  0  0  0  0
  9 10  1  0  0  0  0
 10 11  1  0  0  0  0
 11 12  1  0  0  0  0
 12 13  2  0  0  0  0
 12 14  2  0  0  0  0
 14 15  1  0  0  0  0
 15 16  1  0  0  0  0
 12 17  1  0  0  0  0
 17 18  1  0  0  0  0
 18 19  1  0  0  0  0
  1 20  1  0  0  0  0
  1 21  1  0  0  0  0
  1 22  1  0  0  0  0
  2 23  1  0  0  0  0
  2 24  1  0  0  0  0
  7 25  1  0  0  0  0
  7 26  1  0  0  0  0
  8 27  1  0  0  0  0
  8 28  1  0  0  0  0
  8 29  1  0  0  0  0
 10 30  1  0  0  0  0
 10 31  1  0  0  0  0
 15 32  1  0  0  0  0
 15 33  1  0  0  0  0
 16 34  1  0  0  0  0
 16 35  1  0  0  0  0
 16 36  1  0  0  0  0
 18 37  1  0  0  0  0
 18 38  1  0  0  0  0
 19 39  1  0  0  0  0
 19 40  1  0  0  0  0
 19 41  1  0  0  0  0
M  END
