 xtb: 6.7.1 (edcfbbe)
          04092505213D

 41 40  0     0  0            999 V2000
    3.5013   -3.1874   -0.8616 C   0  0  0  0  0  0  0  0  0  0  0  0
    3.2397   -2.0073   -1.7743 C   0  0  0  0  0  0  0  0  0  0  0  0
    3.4500   -0.7487   -1.0850 O   0  0  0  0  0  0  0  0  0  0  0  0
    2.3598    0.0414   -0.2761 P   0  0  0  0  0  0  0  0  0  0  0  0
    2.9936    1.7929    0.3103 S   0  0  0  0  0  0  0  0  0  0  0  0
    1.9773   -0.9710    0.8939 O   0  0  0  0  0  0  0  0  0  0  0  0
    1.3860   -0.5939    2.1487 C   0  0  0  0  0  0  0  0  0  0  0  0
    2.0592   -1.3892    3.2494 C   0  0  0  0  0  0  0  0  0  0  0  0
    0.6763    0.0378   -1.6113 S   0  0  0  0  0  0  0  0  0  0  0  0
   -0.0023    1.6406   -1.1347 C   0  0  0  0  0  0  0  0  0  0  0  0
   -0.6994    1.6331    0.5355 S   0  0  0  0  0  0  0  0  0  0  0  0
   -2.3050    0.2985    0.1148 P   0  0  0  0  0  0  0  0  0  0  0  0
   -3.1047    0.4536   -1.6728 S   0  0  0  0  0  0  0  0  0  0  0  0
   -3.2442    0.4772    1.3771 O   0  0  0  0  0  0  0  0  0  0  0  0
   -3.6961    1.7345    1.9132 C   0  0  0  0  0  0  0  0  0  0  0  0
   -4.3671    2.6087    0.8740 C   0  0  0  0  0  0  0  0  0  0  0  0
   -1.7613   -1.1479    0.4641 O   0  0  0  0  0  0  0  0  0  0  0  0
   -1.7798   -2.2721   -0.4440 C   0  0  0  0  0  0  0  0  0  0  0  0
   -0.6119   -3.1758   -0.1080 C   0  0  0  0  0  0  0  0  0  0  0  0
    3.4010   -4.1044   -1.4337 H   0  0  0  0  0  0  0  0  0  0  0  0
    4.5072   -3.1262   -0.4555 H   0  0  0  0  0  0  0  0  0  0  0  0
    2.7925   -3.1993   -0.0386 H   0  0  0  0  0  0  0  0  0  0  0  0
    2.2214   -2.0240   -2.1728 H   0  0  0  0  0  0  0  0  0  0  0  0
    3.9538   -1.9763   -2.5991 H   0  0  0  0  0  0  0  0  0  0  0  0
    1.5218    0.4825    2.2988 H   0  0  0  0  0  0  0  0  0  0  0  0
    0.3167   -0.8173    2.0919 H   0  0  0  0  0  0  0  0  0  0  0  0
    3.1182   -1.1481    3.2880 H   0  0  0  0  0  0  0  0  0  0  0  0
    1.6006   -1.1369    4.1999 H   0  0  0  0  0  0  0  0  0  0  0  0
    1.9454   -2.4537    3.0663 H   0  0  0  0  0  0  0  0  0  0  0  0
   -0.7863    1.8700   -1.8565 H   0  0  0  0  0  0  0  0  0  0  0  0
    0.7862    2.3925   -1.1393 H   0  0  0  0  0  0  0  0  0  0  0  0
   -4.3949    1.4406    2.6984 H   0  0  0  0  0  0  0  0  0  0  0  0
   -2.8369    2.2468    2.3553 H   0  0  0  0  0  0  0  0  0  0  0  0
   -3.6469    2.9127    0.1154 H   0  0  0  0  0  0  0  0  0  0  0  0
   -5.1731    2.0662    0.3855 H   0  0  0  0  0  0  0  0  0  0  0  0
   -4.7694    3.4953    1.3536 H   0  0  0  0  0  0  0  0  0  0  0  0
   -2.7331   -2.7870   -0.3051 H   0  0  0  0  0  0  0  0  0  0  0  0
   -1.7213   -1.9035   -1.4732 H   0  0  0  0  0  0  0  0  0  0  0  0
    0.3250   -2.6408   -0.2367 H   0  0  0  0  0  0  0  0  0  0  0  0
   -0.6879   -3.5151    0.9212 H   0  0  0  0  0  0  0  0  0  0  0  0
   -0.6258   -4.0329   -0.7730 H   0  0  0  0  0  0  0  0  0  0  0  0
  1  2  1  0  0  0  0
  2  3  1  0  0  0  0
  3  4  2  0  0  0  0
  4  5  2  0  0  0  0
  4  6  2  0  0  0  0
  6  7  1  0  0  0  0
  7  8  1  0  0  0  0
  4  9  1  0  0  0  0
  9 10  1  0  0  0  0
 10 11  1  0  0  0  0
 11 12  1  0  0  0  0
 12 13  2  0  0  0  0
 12 14  2  0  0  0  0
 14 15  1  0  0  0  0
 15 16  1  0  0  0  0
 12 17  2  0  0  0  0
 17 18  1  0  0  0  0
 18 19  1  0  0  0  0
  1 20  1  0  0  0  0
  1 21  1  0  0  0  0
  1 22  1  0  0  0  0
  2 23  1  0  0  0  0
  2 24  1  0  0  0  0
  7 25  1  0  0  0  0
  7 26  1  0  0  0  0
  8 27  1  0  0  0  0
  8 28  1  0  0  0  0
  8 29  1  0  0  0  0
 10 30  1  0  0  0  0
 10 31  1  0  0  0  0
 15 32  1  0  0  0  0
 15 33  1  0  0  0  0
 16 34  1  0  0  0  0
 16 35  1  0  0  0  0
 16 36  1  0  0  0  0
 18 37  1  0  0  0  0
 18 38  1  0  0  0  0
 19 39  1  0  0  0  0
 19 40  1  0  0  0  0
 19 41  1  0  0  0  0
M  END
