 xtb: 6.7.1 (edcfbbe)
          04092505213D

 41 40  0     0  0            999 V2000
    5.5089    0.9442    1.2660 C   0  0  0  0  0  0  0  0  0  0  0  0
    4.3667    0.1276    1.8347 C   0  0  0  0  0  0  0  0  0  0  0  0
    3.9224   -0.8706    0.8804 O   0  0  0  0  0  0  0  0  0  0  0  0
    2.6877   -0.6808   -0.0737 P   0  0  0  0  0  0  0  0  0  0  0  0
    2.4118   -2.2941   -1.1450 S   0  0  0  0  0  0  0  0  0  0  0  0
    3.0624    0.6736   -0.8264 O   0  0  0  0  0  0  0  0  0  0  0  0
    2.1633    1.4501   -1.6347 C   0  0  0  0  0  0  0  0  0  0  0  0
    1.8379    0.7772   -2.9524 C   0  0  0  0  0  0  0  0  0  0  0  0
    1.0725   -0.1393    1.2280 S   0  0  0  0  0  0  0  0  0  0  0  0
   -0.2364   -1.1052    0.4441 C   0  0  0  0  0  0  0  0  0  0  0  0
   -1.0767   -0.2139   -0.9040 S   0  0  0  0  0  0  0  0  0  0  0  0
   -2.7986    0.3803    0.1987 P   0  0  0  0  0  0  0  0  0  0  0  0
   -4.1204    1.4601   -0.7581 S   0  0  0  0  0  0  0  0  0  0  0  0
   -2.2231    0.9888    1.5473 O   0  0  0  0  0  0  0  0  0  0  0  0
   -2.0746    2.4093    1.7258 C   0  0  0  0  0  0  0  0  0  0  0  0
   -0.9567    2.9767    0.8743 C   0  0  0  0  0  0  0  0  0  0  0  0
   -3.3329   -0.9769    0.8374 O   0  0  0  0  0  0  0  0  0  0  0  0
   -4.3426   -1.7654    0.1846 C   0  0  0  0  0  0  0  0  0  0  0  0
   -3.8264   -2.4309   -1.0762 C   0  0  0  0  0  0  0  0  0  0  0  0
    5.1793    1.4999    0.3925 H   0  0  0  0  0  0  0  0  0  0  0  0
    5.8605    1.6383    2.0229 H   0  0  0  0  0  0  0  0  0  0  0  0
    6.3243    0.2881    0.9743 H   0  0  0  0  0  0  0  0  0  0  0  0
    3.5185    0.7609    2.1075 H   0  0  0  0  0  0  0  0  0  0  0  0
    4.6861   -0.4513    2.7031 H   0  0  0  0  0  0  0  0  0  0  0  0
    1.2486    1.6411   -1.0656 H   0  0  0  0  0  0  0  0  0  0  0  0
    2.6994    2.3879   -1.7911 H   0  0  0  0  0  0  0  0  0  0  0  0
    2.7521    0.5216   -3.4817 H   0  0  0  0  0  0  0  0  0  0  0  0
    1.2656   -0.1334   -2.7844 H   0  0  0  0  0  0  0  0  0  0  0  0
    1.2446    1.4521   -3.5608 H   0  0  0  0  0  0  0  0  0  0  0  0
   -0.9625   -1.3531    1.2140 H   0  0  0  0  0  0  0  0  0  0  0  0
    0.2109   -1.9988    0.0040 H   0  0  0  0  0  0  0  0  0  0  0  0
   -3.0264    2.8907    1.4796 H   0  0  0  0  0  0  0  0  0  0  0  0
   -1.8657    2.5186    2.7906 H   0  0  0  0  0  0  0  0  0  0  0  0
   -0.8528    4.0372    1.0796 H   0  0  0  0  0  0  0  0  0  0  0  0
   -0.0206    2.4723    1.1015 H   0  0  0  0  0  0  0  0  0  0  0  0
   -1.1942    2.8426   -0.1813 H   0  0  0  0  0  0  0  0  0  0  0  0
   -4.6312   -2.4991    0.9388 H   0  0  0  0  0  0  0  0  0  0  0  0
   -5.1935   -1.1168   -0.0467 H   0  0  0  0  0  0  0  0  0  0  0  0
   -2.9393   -3.0227   -0.8629 H   0  0  0  0  0  0  0  0  0  0  0  0
   -4.5982   -3.0785   -1.4799 H   0  0  0  0  0  0  0  0  0  0  0  0
   -3.5761   -1.6759   -1.8211 H   0  0  0  0  0  0  0  0  0  0  0  0
  1  2  1  0  0  0  0
  2  3  1  0  0  0  0
  3  4  2  0  0  0  0
  4  5  2  0  0  0  0
  4  6  2  0  0  0  0
  6  7  1  0  0  0  0
  7  8  1  0  0  0  0
  4  9  1  0  0  0  0
  9 10  1  0  0  0  0
 10 11  1  0  0  0  0
 11 12  1  0  0  0  0
 12 13  2  0  0  0  0
 12 14  2  0  0  0  0
 14 15  1  0  0  0  0
 15 16  1  0  0  0  0
 12 17  1  0  0  0  0
 17 18  1  0  0  0  0
 18 19  1  0  0  0  0
  1 20  1  0  0  0  0
  1 21  1  0  0  0  0
  1 22  1  0  0  0  0
  2 23  1  0  0  0  0
  2 24  1  0  0  0  0
  7 25  1  0  0  0  0
  7 26  1  0  0  0  0
  8 27  1  0  0  0  0
  8 28  1  0  0  0  0
  8 29  1  0  0  0  0
 10 30  1  0  0  0  0
 10 31  1  0  0  0  0
 15 32  1  0  0  0  0
 15 33  1  0  0  0  0
 16 34  1  0  0  0  0
 16 35  1  0  0  0  0
 16 36  1  0  0  0  0
 18 37  1  0  0  0  0
 18 38  1  0  0  0  0
 19 39  1  0  0  0  0
 19 40  1  0  0  0  0
 19 41  1  0  0  0  0
M  END
