 xtb: 6.7.1 (edcfbbe)
          04092505213D

 41 40  0     0  0            999 V2000
    4.7131   -0.7044    0.9954 C   0  0  0  0  0  0  0  0  0  0  0  0
    4.2071   -1.6077   -0.1078 C   0  0  0  0  0  0  0  0  0  0  0  0
    3.4065   -0.9047   -1.0879 O   0  0  0  0  0  0  0  0  0  0  0  0
    2.1117   -0.0459   -0.8145 P   0  0  0  0  0  0  0  0  0  0  0  0
    1.1229    0.1985   -2.4854 S   0  0  0  0  0  0  0  0  0  0  0  0
    2.7075    1.2701   -0.1611 O   0  0  0  0  0  0  0  0  0  0  0  0
    2.0400    2.5405   -0.1064 C   0  0  0  0  0  0  0  0  0  0  0  0
    3.0923    3.6260   -0.2083 C   0  0  0  0  0  0  0  0  0  0  0  0
    1.1039   -1.0746    0.7599 S   0  0  0  0  0  0  0  0  0  0  0  0
   -0.1789   -1.8961   -0.2438 C   0  0  0  0  0  0  0  0  0  0  0  0
   -1.7949   -1.9722    0.5684 S   0  0  0  0  0  0  0  0  0  0  0  0
   -2.4360    0.0604    0.5188 P   0  0  0  0  0  0  0  0  0  0  0  0
   -1.0979    1.4566    0.1613 S   0  0  0  0  0  0  0  0  0  0  0  0
   -3.2218    0.2617    1.8746 O   0  0  0  0  0  0  0  0  0  0  0  0
   -2.5777    0.7700    3.0561 C   0  0  0  0  0  0  0  0  0  0  0  0
   -1.6178   -0.2381    3.6570 C   0  0  0  0  0  0  0  0  0  0  0  0
   -3.7241    0.0441   -0.4038 O   0  0  0  0  0  0  0  0  0  0  0  0
   -3.7891   -0.5375   -1.7163 C   0  0  0  0  0  0  0  0  0  0  0  0
   -2.9732    0.2341   -2.7357 C   0  0  0  0  0  0  0  0  0  0  0  0
    5.3774   -1.2707    1.6409 H   0  0  0  0  0  0  0  0  0  0  0  0
    5.2518    0.1403    0.5744 H   0  0  0  0  0  0  0  0  0  0  0  0
    3.8781   -0.3312    1.5858 H   0  0  0  0  0  0  0  0  0  0  0  0
    3.6049   -2.4211    0.3052 H   0  0  0  0  0  0  0  0  0  0  0  0
    5.0242   -2.0161   -0.7042 H   0  0  0  0  0  0  0  0  0  0  0  0
    1.3175    2.6032   -0.9269 H   0  0  0  0  0  0  0  0  0  0  0  0
    1.4933    2.5960    0.8380 H   0  0  0  0  0  0  0  0  0  0  0  0
    3.6184    3.5470   -1.1560 H   0  0  0  0  0  0  0  0  0  0  0  0
    2.6075    4.5946   -0.1474 H   0  0  0  0  0  0  0  0  0  0  0  0
    3.8067    3.5275    0.6036 H   0  0  0  0  0  0  0  0  0  0  0  0
    0.1060   -2.9340   -0.3966 H   0  0  0  0  0  0  0  0  0  0  0  0
   -0.2507   -1.3622   -1.1953 H   0  0  0  0  0  0  0  0  0  0  0  0
   -2.0543    1.6965    2.7970 H   0  0  0  0  0  0  0  0  0  0  0  0
   -3.4059    0.9897    3.7312 H   0  0  0  0  0  0  0  0  0  0  0  0
   -2.1195   -1.1902    3.8098 H   0  0  0  0  0  0  0  0  0  0  0  0
   -0.7671   -0.3917    2.9930 H   0  0  0  0  0  0  0  0  0  0  0  0
   -1.2549    0.1353    4.6092 H   0  0  0  0  0  0  0  0  0  0  0  0
   -3.4605   -1.5801   -1.6580 H   0  0  0  0  0  0  0  0  0  0  0  0
   -4.8528   -0.5031   -1.9588 H   0  0  0  0  0  0  0  0  0  0  0  0
   -3.2685    1.2805   -2.7397 H   0  0  0  0  0  0  0  0  0  0  0  0
   -1.9083    0.1839   -2.5092 H   0  0  0  0  0  0  0  0  0  0  0  0
   -3.1355   -0.1874   -3.7225 H   0  0  0  0  0  0  0  0  0  0  0  0
  1  2  1  0  0  0  0
  2  3  1  0  0  0  0
  3  4  2  0  0  0  0
  4  5  2  0  0  0  0
  4  6  2  0  0  0  0
  6  7  1  0  0  0  0
  7  8  1  0  0  0  0
  4  9  1  0  0  0  0
  9 10  1  0  0  0  0
 10 11  1  0  0  0  0
 11 12  1  0  0  0  0
 12 13  2  0  0  0  0
 12 14  2  0  0  0  0
 14 15  1  0  0  0  0
 15 16  1  0  0  0  0
 12 17  2  0  0  0  0
 17 18  1  0  0  0  0
 18 19  1  0  0  0  0
  1 20  1  0  0  0  0
  1 21  1  0  0  0  0
  1 22  1  0  0  0  0
  2 23  1  0  0  0  0
  2 24  1  0  0  0  0
  7 25  1  0  0  0  0
  7 26  1  0  0  0  0
  8 27  1  0  0  0  0
  8 28  1  0  0  0  0
  8 29  1  0  0  0  0
 10 30  1  0  0  0  0
 10 31  1  0  0  0  0
 15 32  1  0  0  0  0
 15 33  1  0  0  0  0
 16 34  1  0  0  0  0
 16 35  1  0  0  0  0
 16 36  1  0  0  0  0
 18 37  1  0  0  0  0
 18 38  1  0  0  0  0
 19 39  1  0  0  0  0
 19 40  1  0  0  0  0
 19 41  1  0  0  0  0
M  END
