 xtb: 6.7.1 (edcfbbe)
          04092505213D

 41 40  0     0  0            999 V2000
    1.3514   -1.8091   -2.4643 C   0  0  0  0  0  0  0  0  0  0  0  0
    2.0083   -0.4491   -2.5764 C   0  0  0  0  0  0  0  0  0  0  0  0
    1.8122    0.3718   -1.3993 O   0  0  0  0  0  0  0  0  0  0  0  0
    2.2398    0.0034    0.0721 P   0  0  0  0  0  0  0  0  0  0  0  0
    2.4251    1.6156    1.1698 S   0  0  0  0  0  0  0  0  0  0  0  0
    3.5610   -0.8376   -0.2114 O   0  0  0  0  0  0  0  0  0  0  0  0
    4.2411   -1.6783    0.7380 C   0  0  0  0  0  0  0  0  0  0  0  0
    4.7780   -0.9095    1.9274 C   0  0  0  0  0  0  0  0  0  0  0  0
    0.9136   -1.4725    0.8630 S   0  0  0  0  0  0  0  0  0  0  0  0
    0.0155   -0.4927    2.0989 C   0  0  0  0  0  0  0  0  0  0  0  0
   -1.7773   -0.6248    1.9083 S   0  0  0  0  0  0  0  0  0  0  0  0
   -1.9871    0.2853    0.0100 P   0  0  0  0  0  0  0  0  0  0  0  0
   -0.8435    1.8625   -0.2817 S   0  0  0  0  0  0  0  0  0  0  0  0
   -3.5455    0.5621   -0.0885 O   0  0  0  0  0  0  0  0  0  0  0  0
   -4.1539    1.6898    0.5727 C   0  0  0  0  0  0  0  0  0  0  0  0
   -5.4572    1.9994   -0.1360 C   0  0  0  0  0  0  0  0  0  0  0  0
   -1.8004   -0.9322   -0.9841 O   0  0  0  0  0  0  0  0  0  0  0  0
   -2.5863   -1.1189   -2.1866 C   0  0  0  0  0  0  0  0  0  0  0  0
   -2.3249   -0.0261   -3.2015 C   0  0  0  0  0  0  0  0  0  0  0  0
    0.3077   -1.7019   -2.1802 H   0  0  0  0  0  0  0  0  0  0  0  0
    1.4146   -2.3131   -3.4237 H   0  0  0  0  0  0  0  0  0  0  0  0
    1.8529   -2.4138   -1.7107 H   0  0  0  0  0  0  0  0  0  0  0  0
    1.5605    0.1529   -3.3696 H   0  0  0  0  0  0  0  0  0  0  0  0
    3.0825   -0.5436   -2.7465 H   0  0  0  0  0  0  0  0  0  0  0  0
    3.5498   -2.4613    1.0623 H   0  0  0  0  0  0  0  0  0  0  0  0
    5.0508   -2.1175    0.1521 H   0  0  0  0  0  0  0  0  0  0  0  0
    5.4095   -0.0896    1.5943 H   0  0  0  0  0  0  0  0  0  0  0  0
    3.9594   -0.4922    2.5105 H   0  0  0  0  0  0  0  0  0  0  0  0
    5.3576   -1.5790    2.5548 H   0  0  0  0  0  0  0  0  0  0  0  0
    0.3335    0.5510    2.0093 H   0  0  0  0  0  0  0  0  0  0  0  0
    0.2390   -0.8863    3.0874 H   0  0  0  0  0  0  0  0  0  0  0  0
   -4.3214    1.4176    1.6176 H   0  0  0  0  0  0  0  0  0  0  0  0
   -3.4597    2.5361    0.5287 H   0  0  0  0  0  0  0  0  0  0  0  0
   -5.2680    2.2733   -1.1702 H   0  0  0  0  0  0  0  0  0  0  0  0
   -6.1072    1.1297   -0.1129 H   0  0  0  0  0  0  0  0  0  0  0  0
   -5.9461    2.8267    0.3677 H   0  0  0  0  0  0  0  0  0  0  0  0
   -2.2672   -2.0970   -2.5503 H   0  0  0  0  0  0  0  0  0  0  0  0
   -3.6403   -1.1508   -1.9071 H   0  0  0  0  0  0  0  0  0  0  0  0
   -2.9070   -0.2157   -4.0977 H   0  0  0  0  0  0  0  0  0  0  0  0
   -2.6095    0.9404   -2.7865 H   0  0  0  0  0  0  0  0  0  0  0  0
   -1.2690    0.0126   -3.4586 H   0  0  0  0  0  0  0  0  0  0  0  0
  1  2  1  0  0  0  0
  2  3  1  0  0  0  0
  3  4  2  0  0  0  0
  4  5  2  0  0  0  0
  4  6  2  0  0  0  0
  6  7  1  0  0  0  0
  7  8  1  0  0  0  0
  4  9  1  0  0  0  0
  9 10  1  0  0  0  0
 10 11  1  0  0  0  0
 11 12  1  0  0  0  0
 12 13  2  0  0  0  0
 12 14  2  0  0  0  0
 14 15  1  0  0  0  0
 15 16  1  0  0  0  0
 12 17  2  0  0  0  0
 17 18  1  0  0  0  0
 18 19  1  0  0  0  0
  1 20  1  0  0  0  0
  1 21  1  0  0  0  0
  1 22  1  0  0  0  0
  2 23  1  0  0  0  0
  2 24  1  0  0  0  0
  7 25  1  0  0  0  0
  7 26  1  0  0  0  0
  8 27  1  0  0  0  0
  8 28  1  0  0  0  0
  8 29  1  0  0  0  0
 10 30  1  0  0  0  0
 10 31  1  0  0  0  0
 15 32  1  0  0  0  0
 15 33  1  0  0  0  0
 16 34  1  0  0  0  0
 16 35  1  0  0  0  0
 16 36  1  0  0  0  0
 18 37  1  0  0  0  0
 18 38  1  0  0  0  0
 19 39  1  0  0  0  0
 19 40  1  0  0  0  0
 19 41  1  0  0  0  0
M  END
