 xtb: 6.7.1 (edcfbbe)
          04092505213D

 41 40  0     0  0            999 V2000
    5.3887   -1.0216   -0.8098 C   0  0  0  0  0  0  0  0  0  0  0  0
    4.0680   -1.7523   -0.9387 C   0  0  0  0  0  0  0  0  0  0  0  0
    3.0602   -0.9037   -1.5426 O   0  0  0  0  0  0  0  0  0  0  0  0
    2.0312   -0.0311   -0.7269 P   0  0  0  0  0  0  0  0  0  0  0  0
    0.8747    0.9383   -1.9703 S   0  0  0  0  0  0  0  0  0  0  0  0
    2.9791    0.8194    0.2165 O   0  0  0  0  0  0  0  0  0  0  0  0
    2.5489    1.9179    1.0405 C   0  0  0  0  0  0  0  0  0  0  0  0
    3.7825    2.7034    1.4349 C   0  0  0  0  0  0  0  0  0  0  0  0
    1.0873   -1.4153    0.5910 S   0  0  0  0  0  0  0  0  0  0  0  0
   -0.3270   -1.8419   -0.4767 C   0  0  0  0  0  0  0  0  0  0  0  0
   -1.9195   -1.7600    0.3725 S   0  0  0  0  0  0  0  0  0  0  0  0
   -2.1701    0.3561    0.4748 P   0  0  0  0  0  0  0  0  0  0  0  0
   -0.7788    1.3992    1.3717 S   0  0  0  0  0  0  0  0  0  0  0  0
   -3.6427    0.4764    1.0582 O   0  0  0  0  0  0  0  0  0  0  0  0
   -4.1426   -0.2325    2.2088 C   0  0  0  0  0  0  0  0  0  0  0  0
   -3.2634   -0.0650    3.4297 C   0  0  0  0  0  0  0  0  0  0  0  0
   -2.3527    0.9083   -0.9872 O   0  0  0  0  0  0  0  0  0  0  0  0
   -3.3910    0.5224   -1.9210 C   0  0  0  0  0  0  0  0  0  0  0  0
   -2.8888   -0.5300   -2.8905 C   0  0  0  0  0  0  0  0  0  0  0  0
    5.7019   -0.6466   -1.7803 H   0  0  0  0  0  0  0  0  0  0  0  0
    5.2921   -0.1834   -0.1253 H   0  0  0  0  0  0  0  0  0  0  0  0
    6.1384   -1.7094   -0.4314 H   0  0  0  0  0  0  0  0  0  0  0  0
    3.7052   -2.0935    0.0352 H   0  0  0  0  0  0  0  0  0  0  0  0
    4.1481   -2.5993   -1.6223 H   0  0  0  0  0  0  0  0  0  0  0  0
    1.8413    2.5309    0.4736 H   0  0  0  0  0  0  0  0  0  0  0  0
    2.0282    1.5171    1.9141 H   0  0  0  0  0  0  0  0  0  0  0  0
    4.4662    2.0674    1.9897 H   0  0  0  0  0  0  0  0  0  0  0  0
    4.2851    3.0798    0.5481 H   0  0  0  0  0  0  0  0  0  0  0  0
    3.4823    3.5383    2.0592 H   0  0  0  0  0  0  0  0  0  0  0  0
   -0.2185   -2.8750   -0.7960 H   0  0  0  0  0  0  0  0  0  0  0  0
   -0.3269   -1.1538   -1.3266 H   0  0  0  0  0  0  0  0  0  0  0  0
   -5.1315    0.2020    2.3657 H   0  0  0  0  0  0  0  0  0  0  0  0
   -4.2365   -1.2887    1.9416 H   0  0  0  0  0  0  0  0  0  0  0  0
   -3.7274   -0.5570    4.2783 H   0  0  0  0  0  0  0  0  0  0  0  0
   -2.2850   -0.5100    3.2522 H   0  0  0  0  0  0  0  0  0  0  0  0
   -3.1232    0.9898    3.6548 H   0  0  0  0  0  0  0  0  0  0  0  0
   -4.2625    0.1759   -1.3627 H   0  0  0  0  0  0  0  0  0  0  0  0
   -3.6298    1.4514   -2.4412 H   0  0  0  0  0  0  0  0  0  0  0  0
   -1.9399   -0.2110   -3.3172 H   0  0  0  0  0  0  0  0  0  0  0  0
   -2.7544   -1.4870   -2.3921 H   0  0  0  0  0  0  0  0  0  0  0  0
   -3.6141   -0.6484   -3.6892 H   0  0  0  0  0  0  0  0  0  0  0  0
  1  2  1  0  0  0  0
  2  3  1  0  0  0  0
  3  4  2  0  0  0  0
  4  5  2  0  0  0  0
  4  6  2  0  0  0  0
  6  7  1  0  0  0  0
  7  8  1  0  0  0  0
  4  9  1  0  0  0  0
  9 10  1  0  0  0  0
 10 11  1  0  0  0  0
 11 12  1  0  0  0  0
 12 13  2  0  0  0  0
 12 14  2  0  0  0  0
 14 15  1  0  0  0  0
 15 16  1  0  0  0  0
 12 17  2  0  0  0  0
 17 18  1  0  0  0  0
 18 19  1  0  0  0  0
  1 20  1  0  0  0  0
  1 21  1  0  0  0  0
  1 22  1  0  0  0  0
  2 23  1  0  0  0  0
  2 24  1  0  0  0  0
  7 25  1  0  0  0  0
  7 26  1  0  0  0  0
  8 27  1  0  0  0  0
  8 28  1  0  0  0  0
  8 29  1  0  0  0  0
 10 30  1  0  0  0  0
 10 31  1  0  0  0  0
 15 32  1  0  0  0  0
 15 33  1  0  0  0  0
 16 34  1  0  0  0  0
 16 35  1  0  0  0  0
 16 36  1  0  0  0  0
 18 37  1  0  0  0  0
 18 38  1  0  0  0  0
 19 39  1  0  0  0  0
 19 40  1  0  0  0  0
 19 41  1  0  0  0  0
M  END
