 xtb: 6.7.1 (edcfbbe)
          04092505203D

 41 40  0     0  0            999 V2000
    5.4998   -0.0206    0.9125 C   0  0  0  0  0  0  0  0  0  0  0  0
    4.3957   -1.0367    0.7052 C   0  0  0  0  0  0  0  0  0  0  0  0
    3.7073   -0.7990   -0.5480 O   0  0  0  0  0  0  0  0  0  0  0  0
    2.3457   -0.0167   -0.6652 P   0  0  0  0  0  0  0  0  0  0  0  0
    1.7936    0.0529   -2.5383 S   0  0  0  0  0  0  0  0  0  0  0  0
    2.6846    1.3309    0.1099 O   0  0  0  0  0  0  0  0  0  0  0  0
    1.7522    2.3897    0.3828 C   0  0  0  0  0  0  0  0  0  0  0  0
    1.6225    3.3331   -0.7954 C   0  0  0  0  0  0  0  0  0  0  0  0
    1.0258   -1.0115    0.6827 S   0  0  0  0  0  0  0  0  0  0  0  0
   -0.1006   -1.8012   -0.5145 C   0  0  0  0  0  0  0  0  0  0  0  0
   -1.7649   -1.9301    0.1529 S   0  0  0  0  0  0  0  0  0  0  0  0
   -2.1635    0.1632    0.3134 P   0  0  0  0  0  0  0  0  0  0  0  0
   -1.4257    1.3010   -1.1021 S   0  0  0  0  0  0  0  0  0  0  0  0
   -1.6110    0.6682    1.6985 O   0  0  0  0  0  0  0  0  0  0  0  0
   -1.6000   -0.0453    2.9613 C   0  0  0  0  0  0  0  0  0  0  0  0
   -2.9480   -0.6133    3.3483 C   0  0  0  0  0  0  0  0  0  0  0  0
   -3.7342    0.2210    0.5296 O   0  0  0  0  0  0  0  0  0  0  0  0
   -4.7175   -0.4659   -0.2648 C   0  0  0  0  0  0  0  0  0  0  0  0
   -4.5866   -0.1763   -1.7456 C   0  0  0  0  0  0  0  0  0  0  0  0
    5.0828    0.9795    0.9940 H   0  0  0  0  0  0  0  0  0  0  0  0
    6.0379   -0.2618    1.8239 H   0  0  0  0  0  0  0  0  0  0  0  0
    6.1875   -0.0441    0.0717 H   0  0  0  0  0  0  0  0  0  0  0  0
    3.6677   -1.0076    1.5212 H   0  0  0  0  0  0  0  0  0  0  0  0
    4.7985   -2.0462    0.6063 H   0  0  0  0  0  0  0  0  0  0  0  0
    0.7785    1.9636    0.6438 H   0  0  0  0  0  0  0  0  0  0  0  0
    2.1726    2.8964    1.2537 H   0  0  0  0  0  0  0  0  0  0  0  0
    2.6014    3.6951   -1.0977 H   0  0  0  0  0  0  0  0  0  0  0  0
    1.1589    2.8220   -1.6376 H   0  0  0  0  0  0  0  0  0  0  0  0
    0.9939    4.1719   -0.5140 H   0  0  0  0  0  0  0  0  0  0  0  0
    0.2348   -2.8163   -0.7122 H   0  0  0  0  0  0  0  0  0  0  0  0
   -0.1026   -1.1978   -1.4278 H   0  0  0  0  0  0  0  0  0  0  0  0
   -0.8449   -0.8338    2.8881 H   0  0  0  0  0  0  0  0  0  0  0  0
   -1.2682    0.7161    3.6687 H   0  0  0  0  0  0  0  0  0  0  0  0
   -2.8807   -1.0156    4.3545 H   0  0  0  0  0  0  0  0  0  0  0  0
   -3.7062    0.1649    3.3226 H   0  0  0  0  0  0  0  0  0  0  0  0
   -3.2357   -1.4127    2.6687 H   0  0  0  0  0  0  0  0  0  0  0  0
   -4.6229   -1.5383   -0.0723 H   0  0  0  0  0  0  0  0  0  0  0  0
   -5.6671   -0.0994    0.1289 H   0  0  0  0  0  0  0  0  0  0  0  0
   -5.4003   -0.6544   -2.2814 H   0  0  0  0  0  0  0  0  0  0  0  0
   -4.6159    0.8957   -1.9275 H   0  0  0  0  0  0  0  0  0  0  0  0
   -3.6401   -0.5606   -2.1240 H   0  0  0  0  0  0  0  0  0  0  0  0
  1  2  1  0  0  0  0
  2  3  1  0  0  0  0
  3  4  2  0  0  0  0
  4  5  2  0  0  0  0
  4  6  2  0  0  0  0
  6  7  1  0  0  0  0
  7  8  1  0  0  0  0
  4  9  1  0  0  0  0
  9 10  1  0  0  0  0
 10 11  1  0  0  0  0
 11 12  1  0  0  0  0
 12 13  2  0  0  0  0
 12 14  2  0  0  0  0
 14 15  1  0  0  0  0
 15 16  1  0  0  0  0
 12 17  2  0  0  0  0
 17 18  1  0  0  0  0
 18 19  1  0  0  0  0
  1 20  1  0  0  0  0
  1 21  1  0  0  0  0
  1 22  1  0  0  0  0
  2 23  1  0  0  0  0
  2 24  1  0  0  0  0
  7 25  1  0  0  0  0
  7 26  1  0  0  0  0
  8 27  1  0  0  0  0
  8 28  1  0  0  0  0
  8 29  1  0  0  0  0
 10 30  1  0  0  0  0
 10 31  1  0  0  0  0
 15 32  1  0  0  0  0
 15 33  1  0  0  0  0
 16 34  1  0  0  0  0
 16 35  1  0  0  0  0
 16 36  1  0  0  0  0
 18 37  1  0  0  0  0
 18 38  1  0  0  0  0
 19 39  1  0  0  0  0
 19 40  1  0  0  0  0
 19 41  1  0  0  0  0
M  END
