 xtb: 6.7.1 (edcfbbe)
          04032519423D

 20 20  0     0  0            999 V2000
    0.6160    1.7005   -0.0603 C   0  0  0  0  0  0  0  0  0  0  0  0
    1.3960    0.3982   -0.2678 C   0  0  0  0  0  0  0  0  0  0  0  0
    1.6094    0.2732   -1.3440 H   0  0  0  0  0  0  0  0  0  0  0  0
    0.5337   -0.7838    0.2005 C   0  0  0  0  0  0  0  0  0  0  0  0
    0.3548   -0.7021    1.2781 H   0  0  0  0  0  0  0  0  0  0  0  0
   -0.8113   -0.7351   -0.5307 C   0  0  0  0  0  0  0  0  0  0  0  0
   -0.6307   -0.7840   -1.6193 H   0  0  0  0  0  0  0  0  0  0  0  0
   -1.4779    0.6230   -0.2437 C   0  0  0  0  0  0  0  0  0  0  0  0
   -2.3939    0.7055   -0.8436 H   0  0  0  0  0  0  0  0  0  0  0  0
   -0.6506    1.6709   -0.6998 O   0  0  0  0  0  0  0  0  0  0  0  0
   -1.7395    0.7133    1.1155 O   0  0  0  0  0  0  0  0  0  0  0  0
   -1.6748   -1.7712   -0.1496 O   0  0  0  0  0  0  0  0  0  0  0  0
    1.1845   -2.0184    0.0153 O   0  0  0  0  0  0  0  0  0  0  0  0
    2.5993    0.4866    0.4528 O   0  0  0  0  0  0  0  0  0  0  0  0
    1.1509    2.5416   -0.4990 H   0  0  0  0  0  0  0  0  0  0  0  0
    0.4994    1.8630    1.0172 H   0  0  0  0  0  0  0  0  0  0  0  0
   -2.3497    1.4443    1.2952 H   0  0  0  0  0  0  0  0  0  0  0  0
   -1.1405   -2.5254    0.1480 H   0  0  0  0  0  0  0  0  0  0  0  0
    1.3596   -2.1587   -0.9280 H   0  0  0  0  0  0  0  0  0  0  0  0
    2.9467   -0.4091    0.5895 H   0  0  0  0  0  0  0  0  0  0  0  0
  1  2  1  0  0  0  0
  2  3  1  0  0  0  0
  2  4  1  0  0  0  0
  4  5  1  0  0  0  0
  4  6  1  0  0  0  0
  6  7  1  0  0  0  0
  6  8  1  0  0  0  0
  8  9  1  0  0  0  0
  1 10  1  0  0  0  0
  8 10  1  0  0  0  0
  8 11  1  0  0  0  0
  6 12  1  0  0  0  0
  4 13  1  0  0  0  0
  2 14  1  0  0  0  0
  1 15  1  0  0  0  0
  1 16  1  0  0  0  0
 11 17  1  0  0  0  0
 12 18  1  0  0  0  0
 13 19  1  0  0  0  0
 14 20  1  0  0  0  0
M  END
