 xtb: 6.7.1 (edcfbbe)
          04032519583D

 10  9  0     0  0            999 V2000
   -0.6761   -0.5140    0.3721 C   0  0  0  0  0  0  0  0  0  0  0  0
    0.6691   -0.5392   -0.3492 C   0  0  0  0  0  0  0  0  0  0  0  0
    1.4970    0.4694    0.1908 O   0  0  0  0  0  0  0  0  0  0  0  0
   -1.4906    0.4810   -0.2116 O   0  0  0  0  0  0  0  0  0  0  0  0
   -0.4917   -0.2987    1.4306 H   0  0  0  0  0  0  0  0  0  0  0  0
   -1.1534   -1.4979    0.2755 H   0  0  0  0  0  0  0  0  0  0  0  0
    0.4877   -0.3683   -1.4162 H   0  0  0  0  0  0  0  0  0  0  0  0
    1.1328   -1.5243   -0.2088 H   0  0  0  0  0  0  0  0  0  0  0  0
    2.2956    0.5533   -0.3472 H   0  0  0  0  0  0  0  0  0  0  0  0
   -2.2877    0.5994    0.3223 H   0  0  0  0  0  0  0  0  0  0  0  0
  1  2  1  0  0  0  0
  2  3  1  0  0  0  0
  1  4  1  0  0  0  0
  1  5  1  0  0  0  0
  1  6  1  0  0  0  0
  2  7  1  0  0  0  0
  2  8  1  0  0  0  0
  3  9  1  0  0  0  0
  4 10  1  0  0  0  0
M  END
