 xtb: 6.7.1 (edcfbbe)
          04092505213D

 41 40  0     0  0            999 V2000
    1.1784   -2.5493   -1.7393 C   0  0  0  0  0  0  0  0  0  0  0  0
    2.4644   -2.6321   -0.9417 C   0  0  0  0  0  0  0  0  0  0  0  0
    2.5044   -1.6431    0.1013 O   0  0  0  0  0  0  0  0  0  0  0  0
    2.8078   -0.1194   -0.2110 P   0  0  0  0  0  0  0  0  0  0  0  0
    3.9349    0.1900   -1.7819 S   0  0  0  0  0  0  0  0  0  0  0  0
    3.3958    0.2086    1.2293 O   0  0  0  0  0  0  0  0  0  0  0  0
    3.5395    1.5283    1.7804 C   0  0  0  0  0  0  0  0  0  0  0  0
    4.3193    2.4646    0.8797 C   0  0  0  0  0  0  0  0  0  0  0  0
    0.9210    0.8820   -0.2291 S   0  0  0  0  0  0  0  0  0  0  0  0
    0.1913    0.0652    1.2320 C   0  0  0  0  0  0  0  0  0  0  0  0
   -1.1225   -1.0938    0.7944 S   0  0  0  0  0  0  0  0  0  0  0  0
   -2.5461    0.3991    0.2528 P   0  0  0  0  0  0  0  0  0  0  0  0
   -2.5920    1.9797    1.4016 S   0  0  0  0  0  0  0  0  0  0  0  0
   -3.9092   -0.4063    0.1126 O   0  0  0  0  0  0  0  0  0  0  0  0
   -4.7962   -0.6290    1.2246 C   0  0  0  0  0  0  0  0  0  0  0  0
   -4.1838   -1.5243    2.2819 C   0  0  0  0  0  0  0  0  0  0  0  0
   -2.2007    0.7777   -1.2380 O   0  0  0  0  0  0  0  0  0  0  0  0
   -2.0998   -0.1761   -2.3228 C   0  0  0  0  0  0  0  0  0  0  0  0
   -3.4037   -0.2652   -3.0880 C   0  0  0  0  0  0  0  0  0  0  0  0
    1.1227   -1.5850   -2.2446 H   0  0  0  0  0  0  0  0  0  0  0  0
    1.1656   -3.3380   -2.4844 H   0  0  0  0  0  0  0  0  0  0  0  0
    0.3208   -2.6599   -1.0800 H   0  0  0  0  0  0  0  0  0  0  0  0
    3.3325   -2.4888   -1.5935 H   0  0  0  0  0  0  0  0  0  0  0  0
    2.5497   -3.5808   -0.4106 H   0  0  0  0  0  0  0  0  0  0  0  0
    2.5433    1.9351    1.9820 H   0  0  0  0  0  0  0  0  0  0  0  0
    4.0622    1.3563    2.7232 H   0  0  0  0  0  0  0  0  0  0  0  0
    5.2788    2.0254    0.6166 H   0  0  0  0  0  0  0  0  0  0  0  0
    3.7637    2.6541   -0.0384 H   0  0  0  0  0  0  0  0  0  0  0  0
    4.4830    3.4063    1.3939 H   0  0  0  0  0  0  0  0  0  0  0  0
   -0.2361    0.8475    1.8607 H   0  0  0  0  0  0  0  0  0  0  0  0
    0.9593   -0.5005    1.7544 H   0  0  0  0  0  0  0  0  0  0  0  0
   -5.0639    0.3426    1.6507 H   0  0  0  0  0  0  0  0  0  0  0  0
   -5.6742   -1.0881    0.7680 H   0  0  0  0  0  0  0  0  0  0  0  0
   -3.8070   -2.4397    1.8324 H   0  0  0  0  0  0  0  0  0  0  0  0
   -3.3618   -1.0097    2.7769 H   0  0  0  0  0  0  0  0  0  0  0  0
   -4.9387   -1.7701    3.0219 H   0  0  0  0  0  0  0  0  0  0  0  0
   -1.2938    0.2126   -2.9488 H   0  0  0  0  0  0  0  0  0  0  0  0
   -1.8150   -1.1503   -1.9155 H   0  0  0  0  0  0  0  0  0  0  0  0
   -3.2698   -0.9263   -3.9385 H   0  0  0  0  0  0  0  0  0  0  0  0
   -4.1904   -0.6562   -2.4485 H   0  0  0  0  0  0  0  0  0  0  0  0
   -3.6955    0.7199   -3.4419 H   0  0  0  0  0  0  0  0  0  0  0  0
  1  2  1  0  0  0  0
  2  3  1  0  0  0  0
  3  4  2  0  0  0  0
  4  5  2  0  0  0  0
  4  6  2  0  0  0  0
  6  7  1  0  0  0  0
  7  8  1  0  0  0  0
  4  9  1  0  0  0  0
  9 10  1  0  0  0  0
 10 11  1  0  0  0  0
 11 12  1  0  0  0  0
 12 13  2  0  0  0  0
 12 14  2  0  0  0  0
 14 15  1  0  0  0  0
 15 16  1  0  0  0  0
 12 17  2  0  0  0  0
 17 18  1  0  0  0  0
 18 19  1  0  0  0  0
  1 20  1  0  0  0  0
  1 21  1  0  0  0  0
  1 22  1  0  0  0  0
  2 23  1  0  0  0  0
  2 24  1  0  0  0  0
  7 25  1  0  0  0  0
  7 26  1  0  0  0  0
  8 27  1  0  0  0  0
  8 28  1  0  0  0  0
  8 29  1  0  0  0  0
 10 30  1  0  0  0  0
 10 31  1  0  0  0  0
 15 32  1  0  0  0  0
 15 33  1  0  0  0  0
 16 34  1  0  0  0  0
 16 35  1  0  0  0  0
 16 36  1  0  0  0  0
 18 37  1  0  0  0  0
 18 38  1  0  0  0  0
 19 39  1  0  0  0  0
 19 40  1  0  0  0  0
 19 41  1  0  0  0  0
M  END
