 xtb: 6.7.1 (edcfbbe)
          04092505213D

 41 40  0     0  0            999 V2000
    5.4131   -1.2443   -1.4143 C   0  0  0  0  0  0  0  0  0  0  0  0
    3.9799   -1.5311   -1.0146 C   0  0  0  0  0  0  0  0  0  0  0  0
    3.1682   -0.3971   -1.4089 O   0  0  0  0  0  0  0  0  0  0  0  0
    1.8663    0.0558   -0.6191 P   0  0  0  0  0  0  0  0  0  0  0  0
    1.2474    1.7225   -1.4289 S   0  0  0  0  0  0  0  0  0  0  0  0
    2.2341    0.0732    0.9363 O   0  0  0  0  0  0  0  0  0  0  0  0
    2.6704    1.2788    1.5908 C   0  0  0  0  0  0  0  0  0  0  0  0
    4.0785    1.6519    1.1788 C   0  0  0  0  0  0  0  0  0  0  0  0
    0.7460   -1.7406   -0.6808 S   0  0  0  0  0  0  0  0  0  0  0  0
   -0.1487   -1.8419    0.9126 C   0  0  0  0  0  0  0  0  0  0  0  0
   -1.9420   -1.7267    0.7285 S   0  0  0  0  0  0  0  0  0  0  0  0
   -2.0149    0.3667    0.3882 P   0  0  0  0  0  0  0  0  0  0  0  0
   -0.7979    1.4212    1.5009 S   0  0  0  0  0  0  0  0  0  0  0  0
   -3.5451    0.7576    0.5385 O   0  0  0  0  0  0  0  0  0  0  0  0
   -4.1385    1.1044    1.8029 C   0  0  0  0  0  0  0  0  0  0  0  0
   -4.1848   -0.0689    2.7600 C   0  0  0  0  0  0  0  0  0  0  0  0
   -1.7410    0.5746   -1.1493 O   0  0  0  0  0  0  0  0  0  0  0  0
   -2.2132   -0.2491   -2.2434 C   0  0  0  0  0  0  0  0  0  0  0  0
   -3.7169   -0.4097   -2.2556 C   0  0  0  0  0  0  0  0  0  0  0  0
    5.4673   -1.0582   -2.4830 H   0  0  0  0  0  0  0  0  0  0  0  0
    5.7856   -0.3683   -0.8905 H   0  0  0  0  0  0  0  0  0  0  0  0
    6.0298   -2.1021   -1.1659 H   0  0  0  0  0  0  0  0  0  0  0  0
    3.8858   -1.6779    0.0646 H   0  0  0  0  0  0  0  0  0  0  0  0
    3.5900   -2.4087   -1.5351 H   0  0  0  0  0  0  0  0  0  0  0  0
    1.9658    2.0813    1.3504 H   0  0  0  0  0  0  0  0  0  0  0  0
    2.5987    1.0438    2.6537 H   0  0  0  0  0  0  0  0  0  0  0  0
    4.3825    2.5452    1.7152 H   0  0  0  0  0  0  0  0  0  0  0  0
    4.7673    0.8423    1.4068 H   0  0  0  0  0  0  0  0  0  0  0  0
    4.1034    1.8568    0.1084 H   0  0  0  0  0  0  0  0  0  0  0  0
    0.2010   -1.0437    1.5677 H   0  0  0  0  0  0  0  0  0  0  0  0
    0.0587   -2.8251    1.3254 H   0  0  0  0  0  0  0  0  0  0  0  0
   -3.5689    1.9326    2.2363 H   0  0  0  0  0  0  0  0  0  0  0  0
   -5.1389    1.4450    1.5321 H   0  0  0  0  0  0  0  0  0  0  0  0
   -4.7625    0.2092    3.6357 H   0  0  0  0  0  0  0  0  0  0  0  0
   -4.6444   -0.9306    2.2828 H   0  0  0  0  0  0  0  0  0  0  0  0
   -3.1768   -0.3347    3.0734 H   0  0  0  0  0  0  0  0  0  0  0  0
   -1.8511    0.2865   -3.1230 H   0  0  0  0  0  0  0  0  0  0  0  0
   -1.7146   -1.2214   -2.1789 H   0  0  0  0  0  0  0  0  0  0  0  0
   -4.1992    0.5643   -2.2415 H   0  0  0  0  0  0  0  0  0  0  0  0
   -4.0043   -0.9413   -3.1575 H   0  0  0  0  0  0  0  0  0  0  0  0
   -4.0432   -0.9793   -1.3878 H   0  0  0  0  0  0  0  0  0  0  0  0
  1  2  1  0  0  0  0
  2  3  1  0  0  0  0
  3  4  2  0  0  0  0
  4  5  2  0  0  0  0
  4  6  1  0  0  0  0
  6  7  1  0  0  0  0
  7  8  1  0  0  0  0
  4  9  1  0  0  0  0
  9 10  1  0  0  0  0
 10 11  1  0  0  0  0
 11 12  1  0  0  0  0
 12 13  2  0  0  0  0
 12 14  2  0  0  0  0
 14 15  1  0  0  0  0
 15 16  1  0  0  0  0
 12 17  2  0  0  0  0
 17 18  1  0  0  0  0
 18 19  1  0  0  0  0
  1 20  1  0  0  0  0
  1 21  1  0  0  0  0
  1 22  1  0  0  0  0
  2 23  1  0  0  0  0
  2 24  1  0  0  0  0
  7 25  1  0  0  0  0
  7 26  1  0  0  0  0
  8 27  1  0  0  0  0
  8 28  1  0  0  0  0
  8 29  1  0  0  0  0
 10 30  1  0  0  0  0
 10 31  1  0  0  0  0
 15 32  1  0  0  0  0
 15 33  1  0  0  0  0
 16 34  1  0  0  0  0
 16 35  1  0  0  0  0
 16 36  1  0  0  0  0
 18 37  1  0  0  0  0
 18 38  1  0  0  0  0
 19 39  1  0  0  0  0
 19 40  1  0  0  0  0
 19 41  1  0  0  0  0
M  END
