 xtb: 6.7.1 (edcfbbe)
          04092505203D

 41 40  0     0  0            999 V2000
    2.8448    1.7654   -2.1410 C   0  0  0  0  0  0  0  0  0  0  0  0
    3.1575    0.2843   -2.1265 C   0  0  0  0  0  0  0  0  0  0  0  0
    2.2885   -0.4582   -1.2463 O   0  0  0  0  0  0  0  0  0  0  0  0
    2.1216   -0.2128    0.3082 P   0  0  0  0  0  0  0  0  0  0  0  0
    1.0772    1.3360    0.9305 S   0  0  0  0  0  0  0  0  0  0  0  0
    3.6300   -0.1919    0.8048 O   0  0  0  0  0  0  0  0  0  0  0  0
    3.9986    0.2647    2.1178 C   0  0  0  0  0  0  0  0  0  0  0  0
    3.5520   -0.7034    3.1935 C   0  0  0  0  0  0  0  0  0  0  0  0
    1.4078   -2.1209    0.8504 S   0  0  0  0  0  0  0  0  0  0  0  0
   -0.1986   -2.1083    0.0055 C   0  0  0  0  0  0  0  0  0  0  0  0
   -1.4726   -1.1320    0.8561 S   0  0  0  0  0  0  0  0  0  0  0  0
   -1.8738    0.3896   -0.5908 P   0  0  0  0  0  0  0  0  0  0  0  0
   -0.7751    0.3043   -2.2091 S   0  0  0  0  0  0  0  0  0  0  0  0
   -1.8664    1.8105    0.0724 O   0  0  0  0  0  0  0  0  0  0  0  0
   -2.8395    2.3143    1.0212 C   0  0  0  0  0  0  0  0  0  0  0  0
   -2.8312    1.5378    2.3200 C   0  0  0  0  0  0  0  0  0  0  0  0
   -3.4337    0.1939   -0.8664 O   0  0  0  0  0  0  0  0  0  0  0  0
   -3.9293   -0.9735   -1.5478 C   0  0  0  0  0  0  0  0  0  0  0  0
   -5.3967   -0.7472   -1.8503 C   0  0  0  0  0  0  0  0  0  0  0  0
    3.0393    2.2034   -1.1626 H   0  0  0  0  0  0  0  0  0  0  0  0
    3.4642    2.2592   -2.8829 H   0  0  0  0  0  0  0  0  0  0  0  0
    1.7960    1.9219   -2.3876 H   0  0  0  0  0  0  0  0  0  0  0  0
    4.1888    0.1024   -1.8154 H   0  0  0  0  0  0  0  0  0  0  0  0
    2.9708   -0.1687   -3.1017 H   0  0  0  0  0  0  0  0  0  0  0  0
    5.0851    0.3479    2.0714 H   0  0  0  0  0  0  0  0  0  0  0  0
    3.5527    1.2518    2.2783 H   0  0  0  0  0  0  0  0  0  0  0  0
    3.9111   -1.7053    2.9731 H   0  0  0  0  0  0  0  0  0  0  0  0
    3.9416   -0.3807    4.1535 H   0  0  0  0  0  0  0  0  0  0  0  0
    2.4638   -0.7256    3.2420 H   0  0  0  0  0  0  0  0  0  0  0  0
   -0.5281   -3.1437   -0.0009 H   0  0  0  0  0  0  0  0  0  0  0  0
   -0.0750   -1.7180   -1.0083 H   0  0  0  0  0  0  0  0  0  0  0  0
   -2.5194    3.3467    1.1703 H   0  0  0  0  0  0  0  0  0  0  0  0
   -3.8225    2.2882    0.5474 H   0  0  0  0  0  0  0  0  0  0  0  0
   -1.8201    1.4924    2.7189 H   0  0  0  0  0  0  0  0  0  0  0  0
   -3.4773    2.0352    3.0365 H   0  0  0  0  0  0  0  0  0  0  0  0
   -3.1914    0.5225    2.1604 H   0  0  0  0  0  0  0  0  0  0  0  0
   -3.3464   -1.1143   -2.4642 H   0  0  0  0  0  0  0  0  0  0  0  0
   -3.7853   -1.8392   -0.8943 H   0  0  0  0  0  0  0  0  0  0  0  0
   -5.9476   -0.5947   -0.9269 H   0  0  0  0  0  0  0  0  0  0  0  0
   -5.5161    0.1286   -2.4818 H   0  0  0  0  0  0  0  0  0  0  0  0
   -5.7912   -1.6168   -2.3653 H   0  0  0  0  0  0  0  0  0  0  0  0
  1  2  1  0  0  0  0
  2  3  1  0  0  0  0
  3  4  2  0  0  0  0
  4  5  2  0  0  0  0
  4  6  2  0  0  0  0
  6  7  1  0  0  0  0
  7  8  1  0  0  0  0
  4  9  1  0  0  0  0
  9 10  1  0  0  0  0
 10 11  1  0  0  0  0
 11 12  1  0  0  0  0
 12 13  2  0  0  0  0
 12 14  2  0  0  0  0
 14 15  1  0  0  0  0
 15 16  1  0  0  0  0
 12 17  2  0  0  0  0
 17 18  1  0  0  0  0
 18 19  1  0  0  0  0
  1 20  1  0  0  0  0
  1 21  1  0  0  0  0
  1 22  1  0  0  0  0
  2 23  1  0  0  0  0
  2 24  1  0  0  0  0
  7 25  1  0  0  0  0
  7 26  1  0  0  0  0
  8 27  1  0  0  0  0
  8 28  1  0  0  0  0
  8 29  1  0  0  0  0
 10 30  1  0  0  0  0
 10 31  1  0  0  0  0
 15 32  1  0  0  0  0
 15 33  1  0  0  0  0
 16 34  1  0  0  0  0
 16 35  1  0  0  0  0
 16 36  1  0  0  0  0
 18 37  1  0  0  0  0
 18 38  1  0  0  0  0
 19 39  1  0  0  0  0
 19 40  1  0  0  0  0
 19 41  1  0  0  0  0
M  END
