 xtb: 6.7.1 (edcfbbe)
          04092505203D

 41 40  0     0  0            999 V2000
    5.8107   -0.3042   -0.4033 C   0  0  0  0  0  0  0  0  0  0  0  0
    4.3924   -0.6583   -0.8011 C   0  0  0  0  0  0  0  0  0  0  0  0
    3.5020    0.2556   -0.1285 O   0  0  0  0  0  0  0  0  0  0  0  0
    1.9832    0.4069   -0.5847 P   0  0  0  0  0  0  0  0  0  0  0  0
    1.7404    0.7566   -2.4930 S   0  0  0  0  0  0  0  0  0  0  0  0
    1.5060    1.5695    0.3614 O   0  0  0  0  0  0  0  0  0  0  0  0
    1.7811    1.5671    1.7877 C   0  0  0  0  0  0  0  0  0  0  0  0
    0.9697    2.6826    2.4109 C   0  0  0  0  0  0  0  0  0  0  0  0
    1.1625   -1.4233    0.1237 S   0  0  0  0  0  0  0  0  0  0  0  0
   -0.0945   -1.7498   -1.1532 C   0  0  0  0  0  0  0  0  0  0  0  0
   -1.7569   -1.9226   -0.4775 S   0  0  0  0  0  0  0  0  0  0  0  0
   -1.9862    0.0656    0.2488 P   0  0  0  0  0  0  0  0  0  0  0  0
   -1.4568    1.4674   -1.0175 S   0  0  0  0  0  0  0  0  0  0  0  0
   -1.1776    0.1733    1.6004 O   0  0  0  0  0  0  0  0  0  0  0  0
   -1.5885   -0.3589    2.8875 C   0  0  0  0  0  0  0  0  0  0  0  0
   -1.5598   -1.8724    2.9280 C   0  0  0  0  0  0  0  0  0  0  0  0
   -3.4893    0.1196    0.7568 O   0  0  0  0  0  0  0  0  0  0  0  0
   -4.5918    0.4532   -0.1052 C   0  0  0  0  0  0  0  0  0  0  0  0
   -4.8212   -0.5899   -1.1791 C   0  0  0  0  0  0  0  0  0  0  0  0
    5.9282   -0.3913    0.6728 H   0  0  0  0  0  0  0  0  0  0  0  0
    6.4973   -0.9839   -0.8969 H   0  0  0  0  0  0  0  0  0  0  0  0
    6.0382    0.7151   -0.7026 H   0  0  0  0  0  0  0  0  0  0  0  0
    4.1318   -1.6746   -0.4930 H   0  0  0  0  0  0  0  0  0  0  0  0
    4.2391   -0.5594   -1.8808 H   0  0  0  0  0  0  0  0  0  0  0  0
    1.5000    0.5883    2.1872 H   0  0  0  0  0  0  0  0  0  0  0  0
    2.8531    1.7213    1.9223 H   0  0  0  0  0  0  0  0  0  0  0  0
   -0.0882    2.5224    2.2191 H   0  0  0  0  0  0  0  0  0  0  0  0
    1.1485    2.7009    3.4811 H   0  0  0  0  0  0  0  0  0  0  0  0
    1.2566    3.6370    1.9784 H   0  0  0  0  0  0  0  0  0  0  0  0
    0.1415   -2.7007   -1.6240 H   0  0  0  0  0  0  0  0  0  0  0  0
   -0.0624   -0.9326   -1.8799 H   0  0  0  0  0  0  0  0  0  0  0  0
   -0.8601    0.0733    3.5758 H   0  0  0  0  0  0  0  0  0  0  0  0
   -2.5856    0.0228    3.1120 H   0  0  0  0  0  0  0  0  0  0  0  0
   -1.7175   -2.1975    3.9517 H   0  0  0  0  0  0  0  0  0  0  0  0
   -2.3443   -2.2876    2.2999 H   0  0  0  0  0  0  0  0  0  0  0  0
   -0.5981   -2.2429    2.5796 H   0  0  0  0  0  0  0  0  0  0  0  0
   -5.4401    0.5224    0.5774 H   0  0  0  0  0  0  0  0  0  0  0  0
   -4.3933    1.4307   -0.5552 H   0  0  0  0  0  0  0  0  0  0  0  0
   -3.9965   -0.5800   -1.8901 H   0  0  0  0  0  0  0  0  0  0  0  0
   -4.8928   -1.5807   -0.7379 H   0  0  0  0  0  0  0  0  0  0  0  0
   -5.7413   -0.3619   -1.7077 H   0  0  0  0  0  0  0  0  0  0  0  0
  1  2  1  0  0  0  0
  2  3  1  0  0  0  0
  3  4  2  0  0  0  0
  4  5  2  0  0  0  0
  4  6  2  0  0  0  0
  6  7  1  0  0  0  0
  7  8  1  0  0  0  0
  4  9  1  0  0  0  0
  9 10  1  0  0  0  0
 10 11  1  0  0  0  0
 11 12  1  0  0  0  0
 12 13  2  0  0  0  0
 12 14  2  0  0  0  0
 14 15  1  0  0  0  0
 15 16  1  0  0  0  0
 12 17  2  0  0  0  0
 17 18  1  0  0  0  0
 18 19  1  0  0  0  0
  1 20  1  0  0  0  0
  1 21  1  0  0  0  0
  1 22  1  0  0  0  0
  2 23  1  0  0  0  0
  2 24  1  0  0  0  0
  7 25  1  0  0  0  0
  7 26  1  0  0  0  0
  8 27  1  0  0  0  0
  8 28  1  0  0  0  0
  8 29  1  0  0  0  0
 10 30  1  0  0  0  0
 10 31  1  0  0  0  0
 15 32  1  0  0  0  0
 15 33  1  0  0  0  0
 16 34  1  0  0  0  0
 16 35  1  0  0  0  0
 16 36  1  0  0  0  0
 18 37  1  0  0  0  0
 18 38  1  0  0  0  0
 19 39  1  0  0  0  0
 19 40  1  0  0  0  0
 19 41  1  0  0  0  0
M  END
