 xtb: 6.7.1 (edcfbbe)
          04092505203D

 41 40  0     0  0            999 V2000
    4.4541   -0.4124   -2.1789 C   0  0  0  0  0  0  0  0  0  0  0  0
    4.5777    0.1031   -0.7600 C   0  0  0  0  0  0  0  0  0  0  0  0
    3.5184   -0.3757    0.0873 O   0  0  0  0  0  0  0  0  0  0  0  0
    2.0076    0.0989   -0.0787 P   0  0  0  0  0  0  0  0  0  0  0  0
    1.8513    1.9867   -0.5997 S   0  0  0  0  0  0  0  0  0  0  0  0
    1.3973   -0.3855    1.2951 O   0  0  0  0  0  0  0  0  0  0  0  0
    1.9309   -0.0702    2.5981 C   0  0  0  0  0  0  0  0  0  0  0  0
    1.6144    1.3543    3.0053 C   0  0  0  0  0  0  0  0  0  0  0  0
    1.1414   -1.2993   -1.4009 S   0  0  0  0  0  0  0  0  0  0  0  0
    0.0044   -0.2127   -2.3089 C   0  0  0  0  0  0  0  0  0  0  0  0
   -1.7553   -0.4829   -1.9431 S   0  0  0  0  0  0  0  0  0  0  0  0
   -1.7716   -0.4092    0.1940 P   0  0  0  0  0  0  0  0  0  0  0  0
   -1.1915   -2.0015    1.1714 S   0  0  0  0  0  0  0  0  0  0  0  0
   -3.2956   -0.0446    0.4557 O   0  0  0  0  0  0  0  0  0  0  0  0
   -4.3366   -1.0239    0.2663 C   0  0  0  0  0  0  0  0  0  0  0  0
   -5.5920   -0.5037    0.9364 C   0  0  0  0  0  0  0  0  0  0  0  0
   -1.0251    0.9247    0.5837 O   0  0  0  0  0  0  0  0  0  0  0  0
   -1.5507    2.2329    0.2208 C   0  0  0  0  0  0  0  0  0  0  0  0
   -2.3097    2.8431    1.3791 C   0  0  0  0  0  0  0  0  0  0  0  0
    4.3506   -1.4946   -2.1802 H   0  0  0  0  0  0  0  0  0  0  0  0
    3.5800    0.0243   -2.6597 H   0  0  0  0  0  0  0  0  0  0  0  0
    5.3407   -0.1331   -2.7389 H   0  0  0  0  0  0  0  0  0  0  0  0
    4.5624    1.1978   -0.7459 H   0  0  0  0  0  0  0  0  0  0  0  0
    5.4840   -0.2625   -0.2756 H   0  0  0  0  0  0  0  0  0  0  0  0
    1.4362   -0.7920    3.2515 H   0  0  0  0  0  0  0  0  0  0  0  0
    3.0078   -0.2556    2.5892 H   0  0  0  0  0  0  0  0  0  0  0  0
    1.9491    1.5195    4.0246 H   0  0  0  0  0  0  0  0  0  0  0  0
    2.1153    2.0604    2.3452 H   0  0  0  0  0  0  0  0  0  0  0  0
    0.5416    1.5218    2.9450 H   0  0  0  0  0  0  0  0  0  0  0  0
    0.1083   -0.4369   -3.3678 H   0  0  0  0  0  0  0  0  0  0  0  0
    0.2736    0.8268   -2.0983 H   0  0  0  0  0  0  0  0  0  0  0  0
   -4.4826   -1.1601   -0.8088 H   0  0  0  0  0  0  0  0  0  0  0  0
   -4.0063   -1.9710    0.7056 H   0  0  0  0  0  0  0  0  0  0  0  0
   -5.4196   -0.3701    2.0007 H   0  0  0  0  0  0  0  0  0  0  0  0
   -5.8788    0.4490    0.5008 H   0  0  0  0  0  0  0  0  0  0  0  0
   -6.3933   -1.2207    0.7918 H   0  0  0  0  0  0  0  0  0  0  0  0
   -0.6669    2.8227   -0.0333 H   0  0  0  0  0  0  0  0  0  0  0  0
   -2.1905    2.1251   -0.6586 H   0  0  0  0  0  0  0  0  0  0  0  0
   -2.6526    3.8315    1.0896 H   0  0  0  0  0  0  0  0  0  0  0  0
   -3.1655    2.2247    1.6367 H   0  0  0  0  0  0  0  0  0  0  0  0
   -1.6635    2.9312    2.2484 H   0  0  0  0  0  0  0  0  0  0  0  0
  1  2  1  0  0  0  0
  2  3  1  0  0  0  0
  3  4  2  0  0  0  0
  4  5  2  0  0  0  0
  4  6  2  0  0  0  0
  6  7  1  0  0  0  0
  7  8  1  0  0  0  0
  4  9  1  0  0  0  0
  9 10  1  0  0  0  0
 10 11  1  0  0  0  0
 11 12  1  0  0  0  0
 12 13  2  0  0  0  0
 12 14  2  0  0  0  0
 14 15  1  0  0  0  0
 15 16  1  0  0  0  0
 12 17  2  0  0  0  0
 17 18  1  0  0  0  0
 18 19  1  0  0  0  0
  1 20  1  0  0  0  0
  1 21  1  0  0  0  0
  1 22  1  0  0  0  0
  2 23  1  0  0  0  0
  2 24  1  0  0  0  0
  7 25  1  0  0  0  0
  7 26  1  0  0  0  0
  8 27  1  0  0  0  0
  8 28  1  0  0  0  0
  8 29  1  0  0  0  0
 10 30  1  0  0  0  0
 10 31  1  0  0  0  0
 15 32  1  0  0  0  0
 15 33  1  0  0  0  0
 16 34  1  0  0  0  0
 16 35  1  0  0  0  0
 16 36  1  0  0  0  0
 18 37  1  0  0  0  0
 18 38  1  0  0  0  0
 19 39  1  0  0  0  0
 19 40  1  0  0  0  0
 19 41  1  0  0  0  0
M  END
