 xtb: 6.7.1 (edcfbbe)
          04092507313D

 38 37  0     0  0            999 V2000
    2.5244   -3.0675    0.3264 C   0  0  0  0  0  0  0  0  0  0  0  0
    3.2704   -2.7178   -0.9518 C   0  0  0  0  0  0  0  0  0  0  0  0
    2.4344   -1.9217   -1.8149 O   0  0  0  0  0  0  0  0  0  0  0  0
    2.3628   -0.6283   -1.5978 C   0  0  0  0  0  0  0  0  0  0  0  0
    3.0169   -0.0254   -0.7725 O   0  0  0  0  0  0  0  0  0  0  0  0
    1.3124    0.0328   -2.4702 C   0  0  0  0  0  0  0  0  0  0  0  0
    0.2011    0.5342   -1.5422 C   0  0  0  0  0  0  0  0  0  0  0  0
   -0.5561    1.0737   -2.1177 H   0  0  0  0  0  0  0  0  0  0  0  0
    0.8037    1.4986   -0.5339 C   0  0  0  0  0  0  0  0  0  0  0  0
    1.2495    2.5697   -0.8749 O   0  0  0  0  0  0  0  0  0  0  0  0
    0.8045    1.0461    0.7032 O   0  0  0  0  0  0  0  0  0  0  0  0
    1.4626    1.8749    1.6844 C   0  0  0  0  0  0  0  0  0  0  0  0
    1.4280    1.1728    3.0256 C   0  0  0  0  0  0  0  0  0  0  0  0
   -0.5934   -0.8937   -0.7352 S   0  0  0  0  0  0  0  0  0  0  0  0
   -1.9183    0.1702    0.5400 P   0  0  0  0  0  0  0  0  0  0  0  0
   -2.2292    2.0563    0.1056 S   0  0  0  0  0  0  0  0  0  0  0  0
   -3.2351   -0.7396    0.4918 O   0  0  0  0  0  0  0  0  0  0  0  0
   -4.0383   -0.8238   -0.6905 C   0  0  0  0  0  0  0  0  0  0  0  0
   -1.4704   -0.0732    2.0326 O   0  0  0  0  0  0  0  0  0  0  0  0
   -1.2620   -1.4059    2.5466 C   0  0  0  0  0  0  0  0  0  0  0  0
    1.5907   -3.5680    0.0848 H   0  0  0  0  0  0  0  0  0  0  0  0
    3.1393   -3.7189    0.9381 H   0  0  0  0  0  0  0  0  0  0  0  0
    2.3039   -2.1600    0.8848 H   0  0  0  0  0  0  0  0  0  0  0  0
    3.4999   -3.6067   -1.5384 H   0  0  0  0  0  0  0  0  0  0  0  0
    4.1829   -2.1567   -0.7310 H   0  0  0  0  0  0  0  0  0  0  0  0
    0.9183   -0.6860   -3.1862 H   0  0  0  0  0  0  0  0  0  0  0  0
    1.7503    0.8935   -2.9780 H   0  0  0  0  0  0  0  0  0  0  0  0
    2.4857    2.0372    1.3306 H   0  0  0  0  0  0  0  0  0  0  0  0
    0.9435    2.8385    1.7114 H   0  0  0  0  0  0  0  0  0  0  0  0
    0.4000    1.0505    3.3532 H   0  0  0  0  0  0  0  0  0  0  0  0
    1.9014    0.1985    2.9474 H   0  0  0  0  0  0  0  0  0  0  0  0
    1.9661    1.7754    3.7496 H   0  0  0  0  0  0  0  0  0  0  0  0
   -3.5123   -1.3957   -1.4549 H   0  0  0  0  0  0  0  0  0  0  0  0
   -4.2666    0.1765   -1.0615 H   0  0  0  0  0  0  0  0  0  0  0  0
   -4.9497   -1.3334   -0.3888 H   0  0  0  0  0  0  0  0  0  0  0  0
   -2.2033   -1.9512    2.5516 H   0  0  0  0  0  0  0  0  0  0  0  0
   -0.8882   -1.2692    3.5578 H   0  0  0  0  0  0  0  0  0  0  0  0
   -0.5293   -1.9288    1.9320 H   0  0  0  0  0  0  0  0  0  0  0  0
  1  2  1  0  0  0  0
  2  3  1  0  0  0  0
  3  4  4  0  0  0  0
  4  5  2  0  0  0  0
  4  6  1  0  0  0  0
  6  7  1  0  0  0  0
  7  8  1  0  0  0  0
  7  9  1  0  0  0  0
  9 10  2  0  0  0  0
  9 11  1  0  0  0  0
 11 12  1  0  0  0  0
 12 13  1  0  0  0  0
  7 14  1  0  0  0  0
 14 15  1  0  0  0  0
 15 16  2  0  0  0  0
 15 17  1  0  0  0  0
 17 18  1  0  0  0  0
 15 19  2  0  0  0  0
 19 20  1  0  0  0  0
  1 21  1  0  0  0  0
  1 22  1  0  0  0  0
  1 23  1  0  0  0  0
  2 24  1  0  0  0  0
  2 25  1  0  0  0  0
  6 26  1  0  0  0  0
  6 27  1  0  0  0  0
 12 28  1  0  0  0  0
 12 29  1  0  0  0  0
 13 30  1  0  0  0  0
 13 31  1  0  0  0  0
 13 32  1  0  0  0  0
 18 33  1  0  0  0  0
 18 34  1  0  0  0  0
 18 35  1  0  0  0  0
 20 36  1  0  0  0  0
 20 37  1  0  0  0  0
 20 38  1  0  0  0  0
M  END
