 xtb: 6.7.1 (edcfbbe)
          04092505203D

 41 40  0     0  0            999 V2000
    4.6045    0.0871   -1.8931 C   0  0  0  0  0  0  0  0  0  0  0  0
    4.5678    0.9628   -0.6576 C   0  0  0  0  0  0  0  0  0  0  0  0
    3.7080    0.4334    0.3666 O   0  0  0  0  0  0  0  0  0  0  0  0
    2.1310    0.3188    0.2006 P   0  0  0  0  0  0  0  0  0  0  0  0
    1.2512    1.8158   -0.7069 S   0  0  0  0  0  0  0  0  0  0  0  0
    1.6534    0.2025    1.6980 O   0  0  0  0  0  0  0  0  0  0  0  0
    2.3002   -0.5542    2.7541 C   0  0  0  0  0  0  0  0  0  0  0  0
    1.8679   -2.0070    2.7543 C   0  0  0  0  0  0  0  0  0  0  0  0
    1.8702   -1.5938   -0.7123 S   0  0  0  0  0  0  0  0  0  0  0  0
    0.1430   -1.4099   -1.1829 C   0  0  0  0  0  0  0  0  0  0  0  0
   -0.9318   -1.1429    0.2644 S   0  0  0  0  0  0  0  0  0  0  0  0
   -2.4391    0.0751   -0.6235 P   0  0  0  0  0  0  0  0  0  0  0  0
   -1.9814    0.8012   -2.3842 S   0  0  0  0  0  0  0  0  0  0  0  0
   -2.8655    1.1306    0.4865 O   0  0  0  0  0  0  0  0  0  0  0  0
   -2.0893    2.2916    0.8315 C   0  0  0  0  0  0  0  0  0  0  0  0
   -1.3352    2.0654    2.1268 C   0  0  0  0  0  0  0  0  0  0  0  0
   -3.7338   -0.8197   -0.7149 O   0  0  0  0  0  0  0  0  0  0  0  0
   -4.6271   -1.1366    0.3818 C   0  0  0  0  0  0  0  0  0  0  0  0
   -3.9372   -1.8913    1.4980 C   0  0  0  0  0  0  0  0  0  0  0  0
    3.6431    0.1194   -2.4036 H   0  0  0  0  0  0  0  0  0  0  0  0
    5.3706    0.4542   -2.5686 H   0  0  0  0  0  0  0  0  0  0  0  0
    4.8234   -0.9426   -1.6220 H   0  0  0  0  0  0  0  0  0  0  0  0
    4.2233    1.9704   -0.9102 H   0  0  0  0  0  0  0  0  0  0  0  0
    5.5438    1.0153   -0.1729 H   0  0  0  0  0  0  0  0  0  0  0  0
    3.3809   -0.4567    2.6441 H   0  0  0  0  0  0  0  0  0  0  0  0
    1.9710   -0.0441    3.6610 H   0  0  0  0  0  0  0  0  0  0  0  0
    2.2924   -2.5393    1.9073 H   0  0  0  0  0  0  0  0  0  0  0  0
    2.2100   -2.4740    3.6725 H   0  0  0  0  0  0  0  0  0  0  0  0
    0.7838   -2.0733    2.7000 H   0  0  0  0  0  0  0  0  0  0  0  0
   -0.1399   -2.3370   -1.6757 H   0  0  0  0  0  0  0  0  0  0  0  0
    0.0248   -0.5548   -1.8552 H   0  0  0  0  0  0  0  0  0  0  0  0
   -1.4064    2.5320    0.0102 H   0  0  0  0  0  0  0  0  0  0  0  0
   -2.8205    3.0959    0.9349 H   0  0  0  0  0  0  0  0  0  0  0  0
   -2.0235    1.7686    2.9131 H   0  0  0  0  0  0  0  0  0  0  0  0
   -0.5816    1.2913    1.9991 H   0  0  0  0  0  0  0  0  0  0  0  0
   -0.8384    2.9883    2.4087 H   0  0  0  0  0  0  0  0  0  0  0  0
   -5.0587   -0.2033    0.7478 H   0  0  0  0  0  0  0  0  0  0  0  0
   -5.3990   -1.7411   -0.0971 H   0  0  0  0  0  0  0  0  0  0  0  0
   -3.1705   -1.2687    1.9562 H   0  0  0  0  0  0  0  0  0  0  0  0
   -4.6728   -2.1581    2.2505 H   0  0  0  0  0  0  0  0  0  0  0  0
   -3.4702   -2.7952    1.1159 H   0  0  0  0  0  0  0  0  0  0  0  0
  1  2  1  0  0  0  0
  2  3  1  0  0  0  0
  3  4  2  0  0  0  0
  4  5  2  0  0  0  0
  4  6  2  0  0  0  0
  6  7  1  0  0  0  0
  7  8  1  0  0  0  0
  4  9  1  0  0  0  0
  9 10  1  0  0  0  0
 10 11  1  0  0  0  0
 11 12  1  0  0  0  0
 12 13  2  0  0  0  0
 12 14  2  0  0  0  0
 14 15  1  0  0  0  0
 15 16  1  0  0  0  0
 12 17  2  0  0  0  0
 17 18  1  0  0  0  0
 18 19  1  0  0  0  0
  1 20  1  0  0  0  0
  1 21  1  0  0  0  0
  1 22  1  0  0  0  0
  2 23  1  0  0  0  0
  2 24  1  0  0  0  0
  7 25  1  0  0  0  0
  7 26  1  0  0  0  0
  8 27  1  0  0  0  0
  8 28  1  0  0  0  0
  8 29  1  0  0  0  0
 10 30  1  0  0  0  0
 10 31  1  0  0  0  0
 15 32  1  0  0  0  0
 15 33  1  0  0  0  0
 16 34  1  0  0  0  0
 16 35  1  0  0  0  0
 16 36  1  0  0  0  0
 18 37  1  0  0  0  0
 18 38  1  0  0  0  0
 19 39  1  0  0  0  0
 19 40  1  0  0  0  0
 19 41  1  0  0  0  0
M  END
