 xtb: 6.7.1 (edcfbbe)
          04092505213D

 41 40  0     0  0            999 V2000
    1.8045    3.0515    0.0838 C   0  0  0  0  0  0  0  0  0  0  0  0
    3.1471    2.5489    0.5769 C   0  0  0  0  0  0  0  0  0  0  0  0
    3.5022    1.3035   -0.0436 O   0  0  0  0  0  0  0  0  0  0  0  0
    2.9797   -0.0987    0.4707 P   0  0  0  0  0  0  0  0  0  0  0  0
    2.7874   -0.2168    2.4253 S   0  0  0  0  0  0  0  0  0  0  0  0
    4.1332   -0.9346   -0.2162 O   0  0  0  0  0  0  0  0  0  0  0  0
    4.0568   -2.3301   -0.5560 C   0  0  0  0  0  0  0  0  0  0  0  0
    3.7130   -3.2035    0.6339 C   0  0  0  0  0  0  0  0  0  0  0  0
    1.2416   -0.6044   -0.6649 S   0  0  0  0  0  0  0  0  0  0  0  0
    0.0282   -0.7624    0.6729 C   0  0  0  0  0  0  0  0  0  0  0  0
   -1.0456    0.6859    0.8795 S   0  0  0  0  0  0  0  0  0  0  0  0
   -2.7333    0.0564   -0.2360 P   0  0  0  0  0  0  0  0  0  0  0  0
   -2.6263   -1.7517   -1.0026 S   0  0  0  0  0  0  0  0  0  0  0  0
   -3.0794    1.1976   -1.2910 O   0  0  0  0  0  0  0  0  0  0  0  0
   -2.5544    1.2039   -2.6279 C   0  0  0  0  0  0  0  0  0  0  0  0
   -1.1091    1.6569   -2.6595 C   0  0  0  0  0  0  0  0  0  0  0  0
   -3.8177    0.3338    0.8835 O   0  0  0  0  0  0  0  0  0  0  0  0
   -5.2119    0.6060    0.6237 C   0  0  0  0  0  0  0  0  0  0  0  0
   -5.9014   -0.5425   -0.0837 C   0  0  0  0  0  0  0  0  0  0  0  0
    1.7915    3.0696   -1.0029 H   0  0  0  0  0  0  0  0  0  0  0  0
    1.0040    2.4040    0.4391 H   0  0  0  0  0  0  0  0  0  0  0  0
    1.6355    4.0538    0.4636 H   0  0  0  0  0  0  0  0  0  0  0  0
    3.1407    2.4166    1.6645 H   0  0  0  0  0  0  0  0  0  0  0  0
    3.9551    3.2259    0.2948 H   0  0  0  0  0  0  0  0  0  0  0  0
    3.3191   -2.4529   -1.3541 H   0  0  0  0  0  0  0  0  0  0  0  0
    5.0540   -2.5547   -0.9386 H   0  0  0  0  0  0  0  0  0  0  0  0
    3.7702   -4.2480    0.3447 H   0  0  0  0  0  0  0  0  0  0  0  0
    4.4053   -3.0177    1.4520 H   0  0  0  0  0  0  0  0  0  0  0  0
    2.7033   -2.9879    0.9820 H   0  0  0  0  0  0  0  0  0  0  0  0
    0.5662   -0.8945    1.6144 H   0  0  0  0  0  0  0  0  0  0  0  0
   -0.5956   -1.6255    0.4360 H   0  0  0  0  0  0  0  0  0  0  0  0
   -2.6555    0.1977   -3.0482 H   0  0  0  0  0  0  0  0  0  0  0  0
   -3.2041    1.8974   -3.1640 H   0  0  0  0  0  0  0  0  0  0  0  0
   -0.7939    1.7817   -3.6903 H   0  0  0  0  0  0  0  0  0  0  0  0
   -1.0009    2.6008   -2.1311 H   0  0  0  0  0  0  0  0  0  0  0  0
   -0.4708    0.9109   -2.1878 H   0  0  0  0  0  0  0  0  0  0  0  0
   -5.6268    0.7693    1.6196 H   0  0  0  0  0  0  0  0  0  0  0  0
   -5.2795    1.5246    0.0370 H   0  0  0  0  0  0  0  0  0  0  0  0
   -6.9594   -0.3222   -0.1842 H   0  0  0  0  0  0  0  0  0  0  0  0
   -5.4723   -0.6866   -1.0744 H   0  0  0  0  0  0  0  0  0  0  0  0
   -5.7776   -1.4635    0.4814 H   0  0  0  0  0  0  0  0  0  0  0  0
  1  2  1  0  0  0  0
  2  3  1  0  0  0  0
  3  4  2  0  0  0  0
  4  5  2  0  0  0  0
  4  6  2  0  0  0  0
  6  7  1  0  0  0  0
  7  8  1  0  0  0  0
  4  9  1  0  0  0  0
  9 10  1  0  0  0  0
 10 11  1  0  0  0  0
 11 12  1  0  0  0  0
 12 13  2  0  0  0  0
 12 14  2  0  0  0  0
 14 15  1  0  0  0  0
 15 16  1  0  0  0  0
 12 17  2  0  0  0  0
 17 18  1  0  0  0  0
 18 19  1  0  0  0  0
  1 20  1  0  0  0  0
  1 21  1  0  0  0  0
  1 22  1  0  0  0  0
  2 23  1  0  0  0  0
  2 24  1  0  0  0  0
  7 25  1  0  0  0  0
  7 26  1  0  0  0  0
  8 27  1  0  0  0  0
  8 28  1  0  0  0  0
  8 29  1  0  0  0  0
 10 30  1  0  0  0  0
 10 31  1  0  0  0  0
 15 32  1  0  0  0  0
 15 33  1  0  0  0  0
 16 34  1  0  0  0  0
 16 35  1  0  0  0  0
 16 36  1  0  0  0  0
 18 37  1  0  0  0  0
 18 38  1  0  0  0  0
 19 39  1  0  0  0  0
 19 40  1  0  0  0  0
 19 41  1  0  0  0  0
M  END
