 xtb: 6.7.1 (edcfbbe)
          04092505213D

 41 40  0     0  0            999 V2000
    2.1534   -0.1255   -2.6271 C   0  0  0  0  0  0  0  0  0  0  0  0
    1.7535   -1.2073   -1.6434 C   0  0  0  0  0  0  0  0  0  0  0  0
    2.5892   -1.2237   -0.4793 O   0  0  0  0  0  0  0  0  0  0  0  0
    2.5061   -0.2128    0.7533 P   0  0  0  0  0  0  0  0  0  0  0  0
    3.0904    1.6297    0.4358 S   0  0  0  0  0  0  0  0  0  0  0  0
    3.4717   -0.9047    1.7830 O   0  0  0  0  0  0  0  0  0  0  0  0
    3.1904   -2.0734    2.5935 C   0  0  0  0  0  0  0  0  0  0  0  0
    2.7155   -3.2625    1.7870 C   0  0  0  0  0  0  0  0  0  0  0  0
    0.5427   -0.4522    1.5490 S   0  0  0  0  0  0  0  0  0  0  0  0
   -0.1093    1.1954    1.2018 C   0  0  0  0  0  0  0  0  0  0  0  0
   -0.3818    1.5401   -0.5677 S   0  0  0  0  0  0  0  0  0  0  0  0
   -2.1960    0.4996   -0.8332 P   0  0  0  0  0  0  0  0  0  0  0  0
   -3.0444    0.6030   -2.5962 S   0  0  0  0  0  0  0  0  0  0  0  0
   -3.1502    0.9171    0.3818 O   0  0  0  0  0  0  0  0  0  0  0  0
   -4.1158    1.9721    0.2480 C   0  0  0  0  0  0  0  0  0  0  0  0
   -3.4541    3.3329    0.1624 C   0  0  0  0  0  0  0  0  0  0  0  0
   -1.7180   -0.9387   -0.3731 O   0  0  0  0  0  0  0  0  0  0  0  0
   -2.6328   -2.0591   -0.3311 C   0  0  0  0  0  0  0  0  0  0  0  0
   -1.8189   -3.2954   -0.0112 C   0  0  0  0  0  0  0  0  0  0  0  0
    3.1962   -0.2426   -2.9098 H   0  0  0  0  0  0  0  0  0  0  0  0
    1.5281   -0.1969   -3.5119 H   0  0  0  0  0  0  0  0  0  0  0  0
    2.0224    0.8610   -2.1859 H   0  0  0  0  0  0  0  0  0  0  0  0
    1.8884   -2.2001   -2.0781 H   0  0  0  0  0  0  0  0  0  0  0  0
    0.7093   -1.0868   -1.3357 H   0  0  0  0  0  0  0  0  0  0  0  0
    4.1477   -2.2725    3.0776 H   0  0  0  0  0  0  0  0  0  0  0  0
    2.4472   -1.7901    3.3430 H   0  0  0  0  0  0  0  0  0  0  0  0
    1.7418   -3.0558    1.3469 H   0  0  0  0  0  0  0  0  0  0  0  0
    3.4230   -3.4866    0.9931 H   0  0  0  0  0  0  0  0  0  0  0  0
    2.6284   -4.1219    2.4447 H   0  0  0  0  0  0  0  0  0  0  0  0
    0.6127    1.9434    1.5277 H   0  0  0  0  0  0  0  0  0  0  0  0
   -1.0504    1.2760    1.7393 H   0  0  0  0  0  0  0  0  0  0  0  0
   -4.7133    1.7816   -0.6491 H   0  0  0  0  0  0  0  0  0  0  0  0
   -4.7388    1.8785    1.1385 H   0  0  0  0  0  0  0  0  0  0  0  0
   -2.8227    3.5106    1.0295 H   0  0  0  0  0  0  0  0  0  0  0  0
   -2.8409    3.3889   -0.7372 H   0  0  0  0  0  0  0  0  0  0  0  0
   -4.2180    4.1021    0.1133 H   0  0  0  0  0  0  0  0  0  0  0  0
   -3.3807   -1.8615    0.4402 H   0  0  0  0  0  0  0  0  0  0  0  0
   -3.1296   -2.1342   -1.3037 H   0  0  0  0  0  0  0  0  0  0  0  0
   -1.0856   -3.4745   -0.7925 H   0  0  0  0  0  0  0  0  0  0  0  0
   -1.3023   -3.1586    0.9349 H   0  0  0  0  0  0  0  0  0  0  0  0
   -2.4827   -4.1508    0.0591 H   0  0  0  0  0  0  0  0  0  0  0  0
  1  2  1  0  0  0  0
  2  3  1  0  0  0  0
  3  4  2  0  0  0  0
  4  5  2  0  0  0  0
  4  6  2  0  0  0  0
  6  7  1  0  0  0  0
  7  8  1  0  0  0  0
  4  9  1  0  0  0  0
  9 10  1  0  0  0  0
 10 11  1  0  0  0  0
 11 12  1  0  0  0  0
 12 13  2  0  0  0  0
 12 14  1  0  0  0  0
 14 15  1  0  0  0  0
 15 16  1  0  0  0  0
 12 17  2  0  0  0  0
 17 18  1  0  0  0  0
 18 19  1  0  0  0  0
  1 20  1  0  0  0  0
  1 21  1  0  0  0  0
  1 22  1  0  0  0  0
  2 23  1  0  0  0  0
  2 24  1  0  0  0  0
  7 25  1  0  0  0  0
  7 26  1  0  0  0  0
  8 27  1  0  0  0  0
  8 28  1  0  0  0  0
  8 29  1  0  0  0  0
 10 30  1  0  0  0  0
 10 31  1  0  0  0  0
 15 32  1  0  0  0  0
 15 33  1  0  0  0  0
 16 34  1  0  0  0  0
 16 35  1  0  0  0  0
 16 36  1  0  0  0  0
 18 37  1  0  0  0  0
 18 38  1  0  0  0  0
 19 39  1  0  0  0  0
 19 40  1  0  0  0  0
 19 41  1  0  0  0  0
M  END
