 xtb: 6.7.1 (edcfbbe)
          04092507313D

 38 37  0     0  0            999 V2000
    2.2151   -4.3183    0.0251 C   0  0  0  0  0  0  0  0  0  0  0  0
    1.2695   -3.4621   -0.8012 C   0  0  0  0  0  0  0  0  0  0  0  0
    1.3209   -2.0890   -0.3737 O   0  0  0  0  0  0  0  0  0  0  0  0
    2.1860   -1.2794   -0.9567 C   0  0  0  0  0  0  0  0  0  0  0  0
    2.9547   -1.6013   -1.8320 O   0  0  0  0  0  0  0  0  0  0  0  0
    2.0634    0.1247   -0.3958 C   0  0  0  0  0  0  0  0  0  0  0  0
    0.9660    0.9076   -1.1366 C   0  0  0  0  0  0  0  0  0  0  0  0
    1.3408    1.2772   -2.0925 H   0  0  0  0  0  0  0  0  0  0  0  0
    0.5023    2.0562   -0.2590 C   0  0  0  0  0  0  0  0  0  0  0  0
   -0.5921    2.0541    0.2718 O   0  0  0  0  0  0  0  0  0  0  0  0
    1.4103    2.9746   -0.1195 O   0  0  0  0  0  0  0  0  0  0  0  0
    1.1233    4.1090    0.7324 C   0  0  0  0  0  0  0  0  0  0  0  0
    0.3806    5.1874   -0.0381 C   0  0  0  0  0  0  0  0  0  0  0  0
   -0.5154   -0.0727   -1.5500 S   0  0  0  0  0  0  0  0  0  0  0  0
   -1.3373   -0.3684    0.3757 P   0  0  0  0  0  0  0  0  0  0  0  0
   -0.3817   -0.3056    2.0980 S   0  0  0  0  0  0  0  0  0  0  0  0
   -2.7921    0.2959    0.4159 O   0  0  0  0  0  0  0  0  0  0  0  0
   -3.1667    1.4486    1.1689 C   0  0  0  0  0  0  0  0  0  0  0  0
   -1.7742   -1.8651   -0.0052 O   0  0  0  0  0  0  0  0  0  0  0  0
   -2.4658   -2.6885    0.9375 C   0  0  0  0  0  0  0  0  0  0  0  0
    1.9910   -4.2065    1.0827 H   0  0  0  0  0  0  0  0  0  0  0  0
    2.0978   -5.3585   -0.2597 H   0  0  0  0  0  0  0  0  0  0  0  0
    3.2442   -4.0152   -0.1532 H   0  0  0  0  0  0  0  0  0  0  0  0
    0.2293   -3.7556   -0.6554 H   0  0  0  0  0  0  0  0  0  0  0  0
    1.5285   -3.5021   -1.8631 H   0  0  0  0  0  0  0  0  0  0  0  0
    3.0110    0.6486   -0.5158 H   0  0  0  0  0  0  0  0  0  0  0  0
    1.8099    0.0406    0.6630 H   0  0  0  0  0  0  0  0  0  0  0  0
    0.5386    3.7618    1.5882 H   0  0  0  0  0  0  0  0  0  0  0  0
    2.1055    4.4529    1.0551 H   0  0  0  0  0  0  0  0  0  0  0  0
   -0.5894    4.8192   -0.3637 H   0  0  0  0  0  0  0  0  0  0  0  0
    0.2314    6.0468    0.6069 H   0  0  0  0  0  0  0  0  0  0  0  0
    0.9555    5.4889   -0.9091 H   0  0  0  0  0  0  0  0  0  0  0  0
   -3.0664    2.3365    0.5488 H   0  0  0  0  0  0  0  0  0  0  0  0
   -2.5321    1.5431    2.0514 H   0  0  0  0  0  0  0  0  0  0  0  0
   -4.2036    1.2928    1.4585 H   0  0  0  0  0  0  0  0  0  0  0  0
   -2.4922   -3.6833    0.5000 H   0  0  0  0  0  0  0  0  0  0  0  0
   -3.4776   -2.3146    1.0931 H   0  0  0  0  0  0  0  0  0  0  0  0
   -1.9276   -2.7026    1.8876 H   0  0  0  0  0  0  0  0  0  0  0  0
  1  2  1  0  0  0  0
  2  3  1  0  0  0  0
  3  4  1  0  0  0  0
  4  5  2  0  0  0  0
  4  6  1  0  0  0  0
  6  7  1  0  0  0  0
  7  8  1  0  0  0  0
  7  9  1  0  0  0  0
  9 10  2  0  0  0  0
  9 11  4  0  0  0  0
 11 12  1  0  0  0  0
 12 13  1  0  0  0  0
  7 14  1  0  0  0  0
 14 15  1  0  0  0  0
 15 16  2  0  0  0  0
 15 17  2  0  0  0  0
 17 18  1  0  0  0  0
 15 19  1  0  0  0  0
 19 20  1  0  0  0  0
  1 21  1  0  0  0  0
  1 22  1  0  0  0  0
  1 23  1  0  0  0  0
  2 24  1  0  0  0  0
  2 25  1  0  0  0  0
  6 26  1  0  0  0  0
  6 27  1  0  0  0  0
 12 28  1  0  0  0  0
 12 29  1  0  0  0  0
 13 30  1  0  0  0  0
 13 31  1  0  0  0  0
 13 32  1  0  0  0  0
 18 33  1  0  0  0  0
 18 34  1  0  0  0  0
 18 35  1  0  0  0  0
 20 36  1  0  0  0  0
 20 37  1  0  0  0  0
 20 38  1  0  0  0  0
M  END
