 xtb: 6.7.1 (edcfbbe)
          04092507313D

 38 37  0     0  0            999 V2000
    2.6580   -4.1132   -0.0261 C   0  0  0  0  0  0  0  0  0  0  0  0
    2.6404   -2.6477    0.3592 C   0  0  0  0  0  0  0  0  0  0  0  0
    2.1564   -1.8992   -0.7726 O   0  0  0  0  0  0  0  0  0  0  0  0
    2.1008   -0.5919   -0.6832 C   0  0  0  0  0  0  0  0  0  0  0  0
    2.4156    0.0536    0.2975 O   0  0  0  0  0  0  0  0  0  0  0  0
    1.6129    0.0494   -1.9699 C   0  0  0  0  0  0  0  0  0  0  0  0
    0.3887    0.9302   -1.7020 C   0  0  0  0  0  0  0  0  0  0  0  0
    0.2289    1.6079   -2.5440 H   0  0  0  0  0  0  0  0  0  0  0  0
    0.5669    1.7424   -0.4338 C   0  0  0  0  0  0  0  0  0  0  0  0
   -0.1412    1.5819    0.5453 O   0  0  0  0  0  0  0  0  0  0  0  0
    1.5142    2.6249   -0.5463 O   0  0  0  0  0  0  0  0  0  0  0  0
    1.8458    3.4298    0.6063 C   0  0  0  0  0  0  0  0  0  0  0  0
    0.8699    4.5822    0.7745 C   0  0  0  0  0  0  0  0  0  0  0  0
   -1.1459   -0.0418   -1.5699 S   0  0  0  0  0  0  0  0  0  0  0  0
   -1.5714   -0.3481    0.5001 P   0  0  0  0  0  0  0  0  0  0  0  0
   -0.2947   -1.0614    1.8084 S   0  0  0  0  0  0  0  0  0  0  0  0
   -2.5311    0.8002    1.0257 O   0  0  0  0  0  0  0  0  0  0  0  0
   -3.7758    1.1215    0.3768 C   0  0  0  0  0  0  0  0  0  0  0  0
   -2.7089   -1.4676    0.2207 O   0  0  0  0  0  0  0  0  0  0  0  0
   -2.3758   -2.8139   -0.1152 C   0  0  0  0  0  0  0  0  0  0  0  0
    1.6541   -4.4416   -0.2776 H   0  0  0  0  0  0  0  0  0  0  0  0
    3.3060   -4.2656   -0.8839 H   0  0  0  0  0  0  0  0  0  0  0  0
    3.0241   -4.6964    0.8118 H   0  0  0  0  0  0  0  0  0  0  0  0
    3.6381   -2.2762    0.6125 H   0  0  0  0  0  0  0  0  0  0  0  0
    1.9761   -2.4529    1.2081 H   0  0  0  0  0  0  0  0  0  0  0  0
    1.3692   -0.7227   -2.6979 H   0  0  0  0  0  0  0  0  0  0  0  0
    2.4197    0.6816   -2.3459 H   0  0  0  0  0  0  0  0  0  0  0  0
    1.8495    2.7793    1.4854 H   0  0  0  0  0  0  0  0  0  0  0  0
    2.8543    3.7837    0.3945 H   0  0  0  0  0  0  0  0  0  0  0  0
    1.1964    5.2047    1.6008 H   0  0  0  0  0  0  0  0  0  0  0  0
    0.8344    5.1791   -0.1327 H   0  0  0  0  0  0  0  0  0  0  0  0
   -0.1259    4.2032    0.9945 H   0  0  0  0  0  0  0  0  0  0  0  0
   -3.6195    1.2631   -0.6929 H   0  0  0  0  0  0  0  0  0  0  0  0
   -4.1060    2.0455    0.8451 H   0  0  0  0  0  0  0  0  0  0  0  0
   -4.4951    0.3218    0.5434 H   0  0  0  0  0  0  0  0  0  0  0  0
   -3.2865   -3.3889    0.0315 H   0  0  0  0  0  0  0  0  0  0  0  0
   -1.5857   -3.1770    0.5455 H   0  0  0  0  0  0  0  0  0  0  0  0
   -2.0493   -2.8687   -1.1537 H   0  0  0  0  0  0  0  0  0  0  0  0
  1  2  1  0  0  0  0
  2  3  1  0  0  0  0
  3  4  4  0  0  0  0
  4  5  2  0  0  0  0
  4  6  1  0  0  0  0
  6  7  1  0  0  0  0
  7  8  1  0  0  0  0
  7  9  1  0  0  0  0
  9 10  2  0  0  0  0
  9 11  4  0  0  0  0
 11 12  1  0  0  0  0
 12 13  1  0  0  0  0
  7 14  1  0  0  0  0
 14 15  1  0  0  0  0
 15 16  2  0  0  0  0
 15 17  2  0  0  0  0
 17 18  1  0  0  0  0
 15 19  1  0  0  0  0
 19 20  1  0  0  0  0
  1 21  1  0  0  0  0
  1 22  1  0  0  0  0
  1 23  1  0  0  0  0
  2 24  1  0  0  0  0
  2 25  1  0  0  0  0
  6 26  1  0  0  0  0
  6 27  1  0  0  0  0
 12 28  1  0  0  0  0
 12 29  1  0  0  0  0
 13 30  1  0  0  0  0
 13 31  1  0  0  0  0
 13 32  1  0  0  0  0
 18 33  1  0  0  0  0
 18 34  1  0  0  0  0
 18 35  1  0  0  0  0
 20 36  1  0  0  0  0
 20 37  1  0  0  0  0
 20 38  1  0  0  0  0
M  END
