 xtb: 6.7.1 (edcfbbe)
          04092505203D

 41 40  0     0  0            999 V2000
    5.7980   -0.2159   -0.4002 C   0  0  0  0  0  0  0  0  0  0  0  0
    4.3820   -0.6189   -0.7579 C   0  0  0  0  0  0  0  0  0  0  0  0
    3.4846    0.3390   -0.1602 O   0  0  0  0  0  0  0  0  0  0  0  0
    1.9614    0.4367   -0.6158 P   0  0  0  0  0  0  0  0  0  0  0  0
    1.7024    0.6235   -2.5447 S   0  0  0  0  0  0  0  0  0  0  0  0
    1.4781    1.6639    0.2401 O   0  0  0  0  0  0  0  0  0  0  0  0
    1.7480    1.7601    1.6645 C   0  0  0  0  0  0  0  0  0  0  0  0
    0.7765    2.7603    2.2529 C   0  0  0  0  0  0  0  0  0  0  0  0
    1.1627   -1.3352    0.2533 S   0  0  0  0  0  0  0  0  0  0  0  0
   -0.0582   -1.8203   -1.0065 C   0  0  0  0  0  0  0  0  0  0  0  0
   -1.7208   -2.0248   -0.3341 S   0  0  0  0  0  0  0  0  0  0  0  0
   -2.0623    0.0010    0.2227 P   0  0  0  0  0  0  0  0  0  0  0  0
   -1.4694    1.3704   -1.0458 S   0  0  0  0  0  0  0  0  0  0  0  0
   -1.3976    0.1619    1.6442 O   0  0  0  0  0  0  0  0  0  0  0  0
   -1.7833   -0.6747    2.7713 C   0  0  0  0  0  0  0  0  0  0  0  0
   -0.5564   -0.9420    3.6177 C   0  0  0  0  0  0  0  0  0  0  0  0
   -3.6084    0.0258    0.5933 O   0  0  0  0  0  0  0  0  0  0  0  0
   -4.6448    0.2706   -0.3738 C   0  0  0  0  0  0  0  0  0  0  0  0
   -4.7404   -0.8310   -1.4091 C   0  0  0  0  0  0  0  0  0  0  0  0
    6.0122    0.7761   -0.7880 H   0  0  0  0  0  0  0  0  0  0  0  0
    5.9209   -0.2074    0.6788 H   0  0  0  0  0  0  0  0  0  0  0  0
    6.4903   -0.9281   -0.8365 H   0  0  0  0  0  0  0  0  0  0  0  0
    4.1352   -1.6080   -0.3625 H   0  0  0  0  0  0  0  0  0  0  0  0
    4.2222   -0.6143   -1.8411 H   0  0  0  0  0  0  0  0  0  0  0  0
    1.6220    0.7678    2.1079 H   0  0  0  0  0  0  0  0  0  0  0  0
    2.7840    2.0827    1.7818 H   0  0  0  0  0  0  0  0  0  0  0  0
    0.9764    2.8715    3.3139 H   0  0  0  0  0  0  0  0  0  0  0  0
    0.8890    3.7217    1.7596 H   0  0  0  0  0  0  0  0  0  0  0  0
   -0.2444    2.4155    2.1079 H   0  0  0  0  0  0  0  0  0  0  0  0
    0.2287   -2.7915   -1.4016 H   0  0  0  0  0  0  0  0  0  0  0  0
   -0.0580   -1.0597   -1.7927 H   0  0  0  0  0  0  0  0  0  0  0  0
   -2.5464   -0.1258    3.3252 H   0  0  0  0  0  0  0  0  0  0  0  0
   -2.2126   -1.6044    2.3875 H   0  0  0  0  0  0  0  0  0  0  0  0
   -0.1299   -0.0059    3.9664 H   0  0  0  0  0  0  0  0  0  0  0  0
   -0.8453   -1.5444    4.4729 H   0  0  0  0  0  0  0  0  0  0  0  0
    0.1903   -1.4804    3.0387 H   0  0  0  0  0  0  0  0  0  0  0  0
   -5.5503    0.3354    0.2311 H   0  0  0  0  0  0  0  0  0  0  0  0
   -4.4464    1.2338   -0.8540 H   0  0  0  0  0  0  0  0  0  0  0  0
   -4.8125   -1.8018   -0.9251 H   0  0  0  0  0  0  0  0  0  0  0  0
   -5.6191   -0.6677   -2.0247 H   0  0  0  0  0  0  0  0  0  0  0  0
   -3.8583   -0.8200   -2.0478 H   0  0  0  0  0  0  0  0  0  0  0  0
  1  2  1  0  0  0  0
  2  3  1  0  0  0  0
  3  4  2  0  0  0  0
  4  5  2  0  0  0  0
  4  6  2  0  0  0  0
  6  7  1  0  0  0  0
  7  8  1  0  0  0  0
  4  9  1  0  0  0  0
  9 10  1  0  0  0  0
 10 11  1  0  0  0  0
 11 12  1  0  0  0  0
 12 13  2  0  0  0  0
 12 14  2  0  0  0  0
 14 15  1  0  0  0  0
 15 16  1  0  0  0  0
 12 17  2  0  0  0  0
 17 18  1  0  0  0  0
 18 19  1  0  0  0  0
  1 20  1  0  0  0  0
  1 21  1  0  0  0  0
  1 22  1  0  0  0  0
  2 23  1  0  0  0  0
  2 24  1  0  0  0  0
  7 25  1  0  0  0  0
  7 26  1  0  0  0  0
  8 27  1  0  0  0  0
  8 28  1  0  0  0  0
  8 29  1  0  0  0  0
 10 30  1  0  0  0  0
 10 31  1  0  0  0  0
 15 32  1  0  0  0  0
 15 33  1  0  0  0  0
 16 34  1  0  0  0  0
 16 35  1  0  0  0  0
 16 36  1  0  0  0  0
 18 37  1  0  0  0  0
 18 38  1  0  0  0  0
 19 39  1  0  0  0  0
 19 40  1  0  0  0  0
 19 41  1  0  0  0  0
M  END
