 xtb: 6.7.1 (edcfbbe)
          04092507313D

 38 37  0     0  0            999 V2000
    2.0357   -3.2609   -2.8138 C   0  0  0  0  0  0  0  0  0  0  0  0
    3.0484   -3.0555   -1.6983 C   0  0  0  0  0  0  0  0  0  0  0  0
    2.8667   -1.7627   -1.0890 O   0  0  0  0  0  0  0  0  0  0  0  0
    2.0484   -1.6607   -0.0627 C   0  0  0  0  0  0  0  0  0  0  0  0
    1.4842   -2.5903    0.4701 O   0  0  0  0  0  0  0  0  0  0  0  0
    1.8655   -0.2122    0.3532 C   0  0  0  0  0  0  0  0  0  0  0  0
    0.9916    0.4819   -0.6927 C   0  0  0  0  0  0  0  0  0  0  0  0
    1.5502    0.5986   -1.6265 H   0  0  0  0  0  0  0  0  0  0  0  0
    0.4946    1.8488   -0.2527 C   0  0  0  0  0  0  0  0  0  0  0  0
   -0.6312    2.2413   -0.4897 O   0  0  0  0  0  0  0  0  0  0  0  0
    1.4160    2.5340    0.3620 O   0  0  0  0  0  0  0  0  0  0  0  0
    1.0566    3.8407    0.8611 C   0  0  0  0  0  0  0  0  0  0  0  0
    2.2952    4.4615    1.4736 C   0  0  0  0  0  0  0  0  0  0  0  0
   -0.4664   -0.5095   -1.1658 S   0  0  0  0  0  0  0  0  0  0  0  0
   -1.7786   -0.0632    0.4446 P   0  0  0  0  0  0  0  0  0  0  0  0
   -1.0724    0.6308    2.1336 S   0  0  0  0  0  0  0  0  0  0  0  0
   -2.9875    0.7871   -0.1060 O   0  0  0  0  0  0  0  0  0  0  0  0
   -3.6807    0.4656   -1.3275 C   0  0  0  0  0  0  0  0  0  0  0  0
   -2.5034   -1.4866    0.6173 O   0  0  0  0  0  0  0  0  0  0  0  0
   -1.8445   -2.5785    1.2661 C   0  0  0  0  0  0  0  0  0  0  0  0
    2.1961   -4.2315   -3.2710 H   0  0  0  0  0  0  0  0  0  0  0  0
    1.0249   -3.2178   -2.4138 H   0  0  0  0  0  0  0  0  0  0  0  0
    2.1440   -2.4863   -3.5674 H   0  0  0  0  0  0  0  0  0  0  0  0
    4.0685   -3.0413   -2.0824 H   0  0  0  0  0  0  0  0  0  0  0  0
    2.9411   -3.8232   -0.9270 H   0  0  0  0  0  0  0  0  0  0  0  0
    2.8303    0.2911    0.3979 H   0  0  0  0  0  0  0  0  0  0  0  0
    1.3855   -0.1859    1.3330 H   0  0  0  0  0  0  0  0  0  0  0  0
    0.6673    4.4321    0.0271 H   0  0  0  0  0  0  0  0  0  0  0  0
    0.2563    3.7086    1.5963 H   0  0  0  0  0  0  0  0  0  0  0  0
    3.0775    4.5496    0.7260 H   0  0  0  0  0  0  0  0  0  0  0  0
    2.0481    5.4473    1.8528 H   0  0  0  0  0  0  0  0  0  0  0  0
    2.6537    3.8439    2.2912 H   0  0  0  0  0  0  0  0  0  0  0  0
   -4.4406    1.2359   -1.4289 H   0  0  0  0  0  0  0  0  0  0  0  0
   -4.1320   -0.5220   -1.2497 H   0  0  0  0  0  0  0  0  0  0  0  0
   -2.9852    0.4994   -2.1661 H   0  0  0  0  0  0  0  0  0  0  0  0
   -2.5364   -3.4138    1.2064 H   0  0  0  0  0  0  0  0  0  0  0  0
   -1.6397   -2.3215    2.3061 H   0  0  0  0  0  0  0  0  0  0  0  0
   -0.9051   -2.8199    0.7663 H   0  0  0  0  0  0  0  0  0  0  0  0
  1  2  1  0  0  0  0
  2  3  1  0  0  0  0
  3  4  1  0  0  0  0
  4  5  2  0  0  0  0
  4  6  1  0  0  0  0
  6  7  1  0  0  0  0
  7  8  1  0  0  0  0
  7  9  1  0  0  0  0
  9 10  2  0  0  0  0
  9 11  4  0  0  0  0
 11 12  1  0  0  0  0
 12 13  1  0  0  0  0
  7 14  1  0  0  0  0
 14 15  1  0  0  0  0
 15 16  2  0  0  0  0
 15 17  2  0  0  0  0
 17 18  1  0  0  0  0
 15 19  1  0  0  0  0
 19 20  1  0  0  0  0
  1 21  1  0  0  0  0
  1 22  1  0  0  0  0
  1 23  1  0  0  0  0
  2 24  1  0  0  0  0
  2 25  1  0  0  0  0
  6 26  1  0  0  0  0
  6 27  1  0  0  0  0
 12 28  1  0  0  0  0
 12 29  1  0  0  0  0
 13 30  1  0  0  0  0
 13 31  1  0  0  0  0
 13 32  1  0  0  0  0
 18 33  1  0  0  0  0
 18 34  1  0  0  0  0
 18 35  1  0  0  0  0
 20 36  1  0  0  0  0
 20 37  1  0  0  0  0
 20 38  1  0  0  0  0
M  END
