 xtb: 6.7.1 (edcfbbe)
          04092505213D

 41 40  0     0  0            999 V2000
    1.8514   -3.0135    0.0104 C   0  0  0  0  0  0  0  0  0  0  0  0
    1.5865   -1.9519    1.0584 C   0  0  0  0  0  0  0  0  0  0  0  0
    2.5654   -0.9017    1.0384 O   0  0  0  0  0  0  0  0  0  0  0  0
    2.7231    0.2233   -0.0793 P   0  0  0  0  0  0  0  0  0  0  0  0
    3.3119   -0.3048   -1.8710 S   0  0  0  0  0  0  0  0  0  0  0  0
    3.8058    1.1506    0.5821 O   0  0  0  0  0  0  0  0  0  0  0  0
    3.9232    1.4600    1.9936 C   0  0  0  0  0  0  0  0  0  0  0  0
    2.7188    2.2058    2.5265 C   0  0  0  0  0  0  0  0  0  0  0  0
    0.8780    1.3177   -0.0445 S   0  0  0  0  0  0  0  0  0  0  0  0
    0.2421    0.8603   -1.6698 C   0  0  0  0  0  0  0  0  0  0  0  0
   -0.5746   -0.7613   -1.6716 S   0  0  0  0  0  0  0  0  0  0  0  0
   -2.2072   -0.1934   -0.4561 P   0  0  0  0  0  0  0  0  0  0  0  0
   -2.9045    1.6208   -0.7412 S   0  0  0  0  0  0  0  0  0  0  0  0
   -1.7786   -0.5021    1.0495 O   0  0  0  0  0  0  0  0  0  0  0  0
   -1.7145    0.4824    2.0983 C   0  0  0  0  0  0  0  0  0  0  0  0
   -2.9976    0.4769    2.9048 C   0  0  0  0  0  0  0  0  0  0  0  0
   -3.1028   -1.4430   -0.8366 O   0  0  0  0  0  0  0  0  0  0  0  0
   -4.2474   -1.8660   -0.0646 C   0  0  0  0  0  0  0  0  0  0  0  0
   -5.4643   -1.0050   -0.3400 C   0  0  0  0  0  0  0  0  0  0  0  0
    1.7263   -2.6027   -0.9898 H   0  0  0  0  0  0  0  0  0  0  0  0
    2.8659   -3.3917    0.1059 H   0  0  0  0  0  0  0  0  0  0  0  0
    1.1477   -3.8292    0.1423 H   0  0  0  0  0  0  0  0  0  0  0  0
    1.6725   -2.3634    2.0663 H   0  0  0  0  0  0  0  0  0  0  0  0
    0.5909   -1.5182    0.9241 H   0  0  0  0  0  0  0  0  0  0  0  0
    4.0799    0.5254    2.5348 H   0  0  0  0  0  0  0  0  0  0  0  0
    4.8258    2.0713    2.0370 H   0  0  0  0  0  0  0  0  0  0  0  0
    2.5366    3.1028    1.9405 H   0  0  0  0  0  0  0  0  0  0  0  0
    1.8317    1.5766    2.4806 H   0  0  0  0  0  0  0  0  0  0  0  0
    2.9021    2.4841    3.5596 H   0  0  0  0  0  0  0  0  0  0  0  0
    1.0696    0.7979   -2.3778 H   0  0  0  0  0  0  0  0  0  0  0  0
   -0.4761    1.6287   -1.9554 H   0  0  0  0  0  0  0  0  0  0  0  0
   -0.8562    0.1927    2.7063 H   0  0  0  0  0  0  0  0  0  0  0  0
   -1.5371    1.4677    1.6576 H   0  0  0  0  0  0  0  0  0  0  0  0
   -3.8320    0.7801    2.2754 H   0  0  0  0  0  0  0  0  0  0  0  0
   -3.1918   -0.5152    3.3035 H   0  0  0  0  0  0  0  0  0  0  0  0
   -2.9042    1.1804    3.7256 H   0  0  0  0  0  0  0  0  0  0  0  0
   -4.4095   -2.8962   -0.3864 H   0  0  0  0  0  0  0  0  0  0  0  0
   -3.9826   -1.8481    0.9955 H   0  0  0  0  0  0  0  0  0  0  0  0
   -5.2795    0.0244   -0.0385 H   0  0  0  0  0  0  0  0  0  0  0  0
   -5.6972   -1.0133   -1.4017 H   0  0  0  0  0  0  0  0  0  0  0  0
   -6.3121   -1.3918    0.2166 H   0  0  0  0  0  0  0  0  0  0  0  0
  1  2  1  0  0  0  0
  2  3  1  0  0  0  0
  3  4  2  0  0  0  0
  4  5  2  0  0  0  0
  4  6  2  0  0  0  0
  6  7  1  0  0  0  0
  7  8  1  0  0  0  0
  4  9  1  0  0  0  0
  9 10  1  0  0  0  0
 10 11  1  0  0  0  0
 11 12  1  0  0  0  0
 12 13  2  0  0  0  0
 12 14  2  0  0  0  0
 14 15  1  0  0  0  0
 15 16  1  0  0  0  0
 12 17  2  0  0  0  0
 17 18  1  0  0  0  0
 18 19  1  0  0  0  0
  1 20  1  0  0  0  0
  1 21  1  0  0  0  0
  1 22  1  0  0  0  0
  2 23  1  0  0  0  0
  2 24  1  0  0  0  0
  7 25  1  0  0  0  0
  7 26  1  0  0  0  0
  8 27  1  0  0  0  0
  8 28  1  0  0  0  0
  8 29  1  0  0  0  0
 10 30  1  0  0  0  0
 10 31  1  0  0  0  0
 15 32  1  0  0  0  0
 15 33  1  0  0  0  0
 16 34  1  0  0  0  0
 16 35  1  0  0  0  0
 16 36  1  0  0  0  0
 18 37  1  0  0  0  0
 18 38  1  0  0  0  0
 19 39  1  0  0  0  0
 19 40  1  0  0  0  0
 19 41  1  0  0  0  0
M  END
