 xtb: 6.7.1 (edcfbbe)
          04092505213D

 41 40  0     0  0            999 V2000
    4.1878   -2.1777    0.9018 C   0  0  0  0  0  0  0  0  0  0  0  0
    4.2908   -0.8877    0.1115 C   0  0  0  0  0  0  0  0  0  0  0  0
    3.1942   -0.7753   -0.8328 O   0  0  0  0  0  0  0  0  0  0  0  0
    1.9584    0.1872   -0.6710 P   0  0  0  0  0  0  0  0  0  0  0  0
    0.9021    0.1267   -2.3156 S   0  0  0  0  0  0  0  0  0  0  0  0
    2.6643    1.5515   -0.2710 O   0  0  0  0  0  0  0  0  0  0  0  0
    2.0100    2.7857    0.0778 C   0  0  0  0  0  0  0  0  0  0  0  0
    1.5800    3.5575   -1.1527 C   0  0  0  0  0  0  0  0  0  0  0  0
    1.0500   -0.3764    1.1828 S   0  0  0  0  0  0  0  0  0  0  0  0
    0.3595   -1.9691    0.6837 C   0  0  0  0  0  0  0  0  0  0  0  0
   -1.0906   -1.8787   -0.4280 S   0  0  0  0  0  0  0  0  0  0  0  0
   -2.0735   -0.1743    0.3288 P   0  0  0  0  0  0  0  0  0  0  0  0
   -1.4480    1.6708    0.0546 S   0  0  0  0  0  0  0  0  0  0  0  0
   -2.2264   -0.6287    1.8336 O   0  0  0  0  0  0  0  0  0  0  0  0
   -2.3761    0.2754    2.9524 C   0  0  0  0  0  0  0  0  0  0  0  0
   -1.4029   -0.1298    4.0413 C   0  0  0  0  0  0  0  0  0  0  0  0
   -3.5488   -0.3826   -0.2349 O   0  0  0  0  0  0  0  0  0  0  0  0
   -3.9818    0.1748   -1.4856 C   0  0  0  0  0  0  0  0  0  0  0  0
   -3.2721   -0.4603   -2.6645 C   0  0  0  0  0  0  0  0  0  0  0  0
    4.0847   -3.0216    0.2250 H   0  0  0  0  0  0  0  0  0  0  0  0
    5.0934   -2.3020    1.4872 H   0  0  0  0  0  0  0  0  0  0  0  0
    3.3348   -2.1511    1.5751 H   0  0  0  0  0  0  0  0  0  0  0  0
    5.1857   -0.8773   -0.5127 H   0  0  0  0  0  0  0  0  0  0  0  0
    4.2908   -0.0153    0.7665 H   0  0  0  0  0  0  0  0  0  0  0  0
    1.1499    2.5745    0.7182 H   0  0  0  0  0  0  0  0  0  0  0  0
    2.7677    3.3306    0.6442 H   0  0  0  0  0  0  0  0  0  0  0  0
    0.7957    3.0173   -1.6793 H   0  0  0  0  0  0  0  0  0  0  0  0
    1.1907    4.5236   -0.8487 H   0  0  0  0  0  0  0  0  0  0  0  0
    2.4228    3.6975   -1.8243 H   0  0  0  0  0  0  0  0  0  0  0  0
    0.0621   -2.4692    1.6028 H   0  0  0  0  0  0  0  0  0  0  0  0
    1.1078   -2.5458    0.1419 H   0  0  0  0  0  0  0  0  0  0  0  0
   -2.1870    1.2980    2.6084 H   0  0  0  0  0  0  0  0  0  0  0  0
   -3.4121    0.1900    3.2856 H   0  0  0  0  0  0  0  0  0  0  0  0
   -0.3804   -0.0436    3.6800 H   0  0  0  0  0  0  0  0  0  0  0  0
   -1.5369    0.5245    4.8964 H   0  0  0  0  0  0  0  0  0  0  0  0
   -1.5876   -1.1569    4.3418 H   0  0  0  0  0  0  0  0  0  0  0  0
   -5.0543   -0.0229   -1.5050 H   0  0  0  0  0  0  0  0  0  0  0  0
   -3.8013    1.2549   -1.4654 H   0  0  0  0  0  0  0  0  0  0  0  0
   -3.3794   -1.5420   -2.6337 H   0  0  0  0  0  0  0  0  0  0  0  0
   -3.6939   -0.0809   -3.5896 H   0  0  0  0  0  0  0  0  0  0  0  0
   -2.2084   -0.2161   -2.6412 H   0  0  0  0  0  0  0  0  0  0  0  0
  1  2  1  0  0  0  0
  2  3  1  0  0  0  0
  3  4  2  0  0  0  0
  4  5  2  0  0  0  0
  4  6  2  0  0  0  0
  6  7  1  0  0  0  0
  7  8  1  0  0  0  0
  4  9  1  0  0  0  0
  9 10  1  0  0  0  0
 10 11  1  0  0  0  0
 11 12  1  0  0  0  0
 12 13  2  0  0  0  0
 12 14  2  0  0  0  0
 14 15  1  0  0  0  0
 15 16  1  0  0  0  0
 12 17  2  0  0  0  0
 17 18  1  0  0  0  0
 18 19  1  0  0  0  0
  1 20  1  0  0  0  0
  1 21  1  0  0  0  0
  1 22  1  0  0  0  0
  2 23  1  0  0  0  0
  2 24  1  0  0  0  0
  7 25  1  0  0  0  0
  7 26  1  0  0  0  0
  8 27  1  0  0  0  0
  8 28  1  0  0  0  0
  8 29  1  0  0  0  0
 10 30  1  0  0  0  0
 10 31  1  0  0  0  0
 15 32  1  0  0  0  0
 15 33  1  0  0  0  0
 16 34  1  0  0  0  0
 16 35  1  0  0  0  0
 16 36  1  0  0  0  0
 18 37  1  0  0  0  0
 18 38  1  0  0  0  0
 19 39  1  0  0  0  0
 19 40  1  0  0  0  0
 19 41  1  0  0  0  0
M  END
