 xtb: 6.7.1 (edcfbbe)
          04092505203D

 41 40  0     0  0            999 V2000
    5.3665   -0.0317   -0.7265 C   0  0  0  0  0  0  0  0  0  0  0  0
    4.3948   -0.7431    0.1952 C   0  0  0  0  0  0  0  0  0  0  0  0
    3.3304    0.1394    0.6014 O   0  0  0  0  0  0  0  0  0  0  0  0
    1.9282    0.1866   -0.1501 P   0  0  0  0  0  0  0  0  0  0  0  0
    1.9947    0.4467   -2.0967 S   0  0  0  0  0  0  0  0  0  0  0  0
    1.1812    1.2839    0.7076 O   0  0  0  0  0  0  0  0  0  0  0  0
    1.2084    2.6806    0.3587 C   0  0  0  0  0  0  0  0  0  0  0  0
    2.5935    3.2701    0.5114 C   0  0  0  0  0  0  0  0  0  0  0  0
    1.0565   -1.6110    0.5087 S   0  0  0  0  0  0  0  0  0  0  0  0
   -0.1029   -1.9639   -0.8556 C   0  0  0  0  0  0  0  0  0  0  0  0
   -1.8215   -2.0521   -0.3090 S   0  0  0  0  0  0  0  0  0  0  0  0
   -2.1097    0.0186    0.0777 P   0  0  0  0  0  0  0  0  0  0  0  0
   -1.4772    1.2481   -1.3058 S   0  0  0  0  0  0  0  0  0  0  0  0
   -1.4445    0.2923    1.4802 O   0  0  0  0  0  0  0  0  0  0  0  0
   -1.8361   -0.4219    2.6839 C   0  0  0  0  0  0  0  0  0  0  0  0
   -0.6789   -0.3657    3.6587 C   0  0  0  0  0  0  0  0  0  0  0  0
   -3.6564    0.1177    0.4312 O   0  0  0  0  0  0  0  0  0  0  0  0
   -4.6813    0.2970   -0.5635 C   0  0  0  0  0  0  0  0  0  0  0  0
   -4.8025   -0.8948   -1.4903 C   0  0  0  0  0  0  0  0  0  0  0  0
    6.1830   -0.7030   -0.9717 H   0  0  0  0  0  0  0  0  0  0  0  0
    4.8643    0.2650   -1.6449 H   0  0  0  0  0  0  0  0  0  0  0  0
    5.7633    0.8549   -0.2398 H   0  0  0  0  0  0  0  0  0  0  0  0
    4.8762   -1.0406    1.1285 H   0  0  0  0  0  0  0  0  0  0  0  0
    3.9680   -1.6246   -0.2920 H   0  0  0  0  0  0  0  0  0  0  0  0
    0.8457    2.7898   -0.6693 H   0  0  0  0  0  0  0  0  0  0  0  0
    0.4887    3.1328    1.0430 H   0  0  0  0  0  0  0  0  0  0  0  0
    3.2664    2.8176   -0.2162 H   0  0  0  0  0  0  0  0  0  0  0  0
    2.5495    4.3403    0.3351 H   0  0  0  0  0  0  0  0  0  0  0  0
    2.9739    3.0784    1.5113 H   0  0  0  0  0  0  0  0  0  0  0  0
    0.1374   -2.9459   -1.2545 H   0  0  0  0  0  0  0  0  0  0  0  0
    0.0107   -1.1893   -1.6197 H   0  0  0  0  0  0  0  0  0  0  0  0
   -2.7249    0.0721    3.0802 H   0  0  0  0  0  0  0  0  0  0  0  0
   -2.0837   -1.4531    2.4149 H   0  0  0  0  0  0  0  0  0  0  0  0
   -0.4180    0.6677    3.8688 H   0  0  0  0  0  0  0  0  0  0  0  0
   -0.9678   -0.8606    4.5802 H   0  0  0  0  0  0  0  0  0  0  0  0
    0.1910   -0.8658    3.2400 H   0  0  0  0  0  0  0  0  0  0  0  0
   -5.5875    0.4433    0.0261 H   0  0  0  0  0  0  0  0  0  0  0  0
   -4.4548    1.2049   -1.1308 H   0  0  0  0  0  0  0  0  0  0  0  0
   -4.9018   -1.8129   -0.9167 H   0  0  0  0  0  0  0  0  0  0  0  0
   -5.6751   -0.7674   -2.1229 H   0  0  0  0  0  0  0  0  0  0  0  0
   -3.9187   -0.9685   -2.1220 H   0  0  0  0  0  0  0  0  0  0  0  0
  1  2  1  0  0  0  0
  2  3  1  0  0  0  0
  3  4  2  0  0  0  0
  4  5  2  0  0  0  0
  4  6  2  0  0  0  0
  6  7  1  0  0  0  0
  7  8  1  0  0  0  0
  4  9  1  0  0  0  0
  9 10  1  0  0  0  0
 10 11  1  0  0  0  0
 11 12  1  0  0  0  0
 12 13  2  0  0  0  0
 12 14  2  0  0  0  0
 14 15  1  0  0  0  0
 15 16  1  0  0  0  0
 12 17  2  0  0  0  0
 17 18  1  0  0  0  0
 18 19  1  0  0  0  0
  1 20  1  0  0  0  0
  1 21  1  0  0  0  0
  1 22  1  0  0  0  0
  2 23  1  0  0  0  0
  2 24  1  0  0  0  0
  7 25  1  0  0  0  0
  7 26  1  0  0  0  0
  8 27  1  0  0  0  0
  8 28  1  0  0  0  0
  8 29  1  0  0  0  0
 10 30  1  0  0  0  0
 10 31  1  0  0  0  0
 15 32  1  0  0  0  0
 15 33  1  0  0  0  0
 16 34  1  0  0  0  0
 16 35  1  0  0  0  0
 16 36  1  0  0  0  0
 18 37  1  0  0  0  0
 18 38  1  0  0  0  0
 19 39  1  0  0  0  0
 19 40  1  0  0  0  0
 19 41  1  0  0  0  0
M  END
