 xtb: 6.7.1 (edcfbbe)
          04092505213D

 41 40  0     0  0            999 V2000
    4.2431   -2.3480   -0.5517 C   0  0  0  0  0  0  0  0  0  0  0  0
    4.1664   -0.9076   -1.0208 C   0  0  0  0  0  0  0  0  0  0  0  0
    3.4938   -0.0825   -0.0575 O   0  0  0  0  0  0  0  0  0  0  0  0
    1.9468    0.3020   -0.1209 P   0  0  0  0  0  0  0  0  0  0  0  0
    1.3314    0.6622   -1.9476 S   0  0  0  0  0  0  0  0  0  0  0  0
    1.9005    1.4396    0.9691 O   0  0  0  0  0  0  0  0  0  0  0  0
    1.9926    2.8395    0.6392 C   0  0  0  0  0  0  0  0  0  0  0  0
    3.3459    3.1978    0.0629 C   0  0  0  0  0  0  0  0  0  0  0  0
    0.9574   -1.2000    1.0052 S   0  0  0  0  0  0  0  0  0  0  0  0
    0.2974   -2.2218   -0.3381 C   0  0  0  0  0  0  0  0  0  0  0  0
   -1.2198   -1.6040   -1.1652 S   0  0  0  0  0  0  0  0  0  0  0  0
   -2.0294   -0.2565    0.2320 P   0  0  0  0  0  0  0  0  0  0  0  0
   -1.2482    1.5228    0.5521 S   0  0  0  0  0  0  0  0  0  0  0  0
   -2.1473   -1.2125    1.4860 O   0  0  0  0  0  0  0  0  0  0  0  0
   -2.2397   -0.7167    2.8363 C   0  0  0  0  0  0  0  0  0  0  0  0
   -3.5837   -0.0716    3.1000 C   0  0  0  0  0  0  0  0  0  0  0  0
   -3.5373   -0.1615   -0.2645 O   0  0  0  0  0  0  0  0  0  0  0  0
   -3.9853    0.8285   -1.2038 C   0  0  0  0  0  0  0  0  0  0  0  0
   -3.4042    0.6025   -2.5849 C   0  0  0  0  0  0  0  0  0  0  0  0
    4.8257   -2.9234   -1.2640 H   0  0  0  0  0  0  0  0  0  0  0  0
    4.7200   -2.3936    0.4235 H   0  0  0  0  0  0  0  0  0  0  0  0
    3.2495   -2.7829   -0.4710 H   0  0  0  0  0  0  0  0  0  0  0  0
    3.6484   -0.8210   -1.9826 H   0  0  0  0  0  0  0  0  0  0  0  0
    5.1638   -0.4725   -1.1084 H   0  0  0  0  0  0  0  0  0  0  0  0
    1.1859    3.0825   -0.0603 H   0  0  0  0  0  0  0  0  0  0  0  0
    1.8059    3.3405    1.5902 H   0  0  0  0  0  0  0  0  0  0  0  0
    3.3994    4.2718   -0.0844 H   0  0  0  0  0  0  0  0  0  0  0  0
    4.1356    2.8823    0.7398 H   0  0  0  0  0  0  0  0  0  0  0  0
    3.4823    2.7006   -0.8970 H   0  0  0  0  0  0  0  0  0  0  0  0
    0.0629   -3.1843    0.1104 H   0  0  0  0  0  0  0  0  0  0  0  0
    1.0349   -2.3231   -1.1335 H   0  0  0  0  0  0  0  0  0  0  0  0
   -2.0829   -1.6038    3.4509 H   0  0  0  0  0  0  0  0  0  0  0  0
   -1.4250   -0.0034    3.0015 H   0  0  0  0  0  0  0  0  0  0  0  0
   -3.6533    0.2035    4.1477 H   0  0  0  0  0  0  0  0  0  0  0  0
   -3.6881    0.8250    2.4898 H   0  0  0  0  0  0  0  0  0  0  0  0
   -4.3853   -0.7614    2.8499 H   0  0  0  0  0  0  0  0  0  0  0  0
   -5.0709    0.7230   -1.1995 H   0  0  0  0  0  0  0  0  0  0  0  0
   -3.7038    1.8175   -0.8263 H   0  0  0  0  0  0  0  0  0  0  0  0
   -3.6070   -0.4118   -2.9197 H   0  0  0  0  0  0  0  0  0  0  0  0
   -3.8411    1.3098   -3.2825 H   0  0  0  0  0  0  0  0  0  0  0  0
   -2.3238    0.7515   -2.5642 H   0  0  0  0  0  0  0  0  0  0  0  0
  1  2  1  0  0  0  0
  2  3  1  0  0  0  0
  3  4  2  0  0  0  0
  4  5  2  0  0  0  0
  4  6  2  0  0  0  0
  6  7  1  0  0  0  0
  7  8  1  0  0  0  0
  4  9  1  0  0  0  0
  9 10  1  0  0  0  0
 10 11  1  0  0  0  0
 11 12  1  0  0  0  0
 12 13  2  0  0  0  0
 12 14  2  0  0  0  0
 14 15  1  0  0  0  0
 15 16  1  0  0  0  0
 12 17  2  0  0  0  0
 17 18  1  0  0  0  0
 18 19  1  0  0  0  0
  1 20  1  0  0  0  0
  1 21  1  0  0  0  0
  1 22  1  0  0  0  0
  2 23  1  0  0  0  0
  2 24  1  0  0  0  0
  7 25  1  0  0  0  0
  7 26  1  0  0  0  0
  8 27  1  0  0  0  0
  8 28  1  0  0  0  0
  8 29  1  0  0  0  0
 10 30  1  0  0  0  0
 10 31  1  0  0  0  0
 15 32  1  0  0  0  0
 15 33  1  0  0  0  0
 16 34  1  0  0  0  0
 16 35  1  0  0  0  0
 16 36  1  0  0  0  0
 18 37  1  0  0  0  0
 18 38  1  0  0  0  0
 19 39  1  0  0  0  0
 19 40  1  0  0  0  0
 19 41  1  0  0  0  0
M  END
