 xtb: 6.7.1 (edcfbbe)
          04092505203D

 41 40  0     0  0            999 V2000
    3.8591    0.2299   -3.1390 C   0  0  0  0  0  0  0  0  0  0  0  0
    2.6367    0.1444   -2.2488 C   0  0  0  0  0  0  0  0  0  0  0  0
    3.0949   -0.0545   -0.8993 O   0  0  0  0  0  0  0  0  0  0  0  0
    2.2282    0.2295    0.3998 P   0  0  0  0  0  0  0  0  0  0  0  0
    1.3349    1.9639    0.5274 S   0  0  0  0  0  0  0  0  0  0  0  0
    3.3188    0.1063    1.5304 O   0  0  0  0  0  0  0  0  0  0  0  0
    4.1484   -1.0714    1.7177 C   0  0  0  0  0  0  0  0  0  0  0  0
    3.7540   -1.7839    2.9959 C   0  0  0  0  0  0  0  0  0  0  0  0
    1.0110   -1.5061    0.5916 S   0  0  0  0  0  0  0  0  0  0  0  0
   -0.3086   -0.7937    1.6322 C   0  0  0  0  0  0  0  0  0  0  0  0
   -1.9669   -1.1578    1.0174 S   0  0  0  0  0  0  0  0  0  0  0  0
   -2.0622    0.2912   -0.5430 P   0  0  0  0  0  0  0  0  0  0  0  0
   -0.7618    0.0854   -1.9937 S   0  0  0  0  0  0  0  0  0  0  0  0
   -1.9363    1.6979    0.1566 O   0  0  0  0  0  0  0  0  0  0  0  0
   -3.0007    2.4298    0.8119 C   0  0  0  0  0  0  0  0  0  0  0  0
   -3.5450    1.7148    2.0306 C   0  0  0  0  0  0  0  0  0  0  0  0
   -3.5816    0.2519   -1.0006 O   0  0  0  0  0  0  0  0  0  0  0  0
   -4.0590   -0.6566   -2.0101 C   0  0  0  0  0  0  0  0  0  0  0  0
   -3.9627   -2.1023   -1.5694 C   0  0  0  0  0  0  0  0  0  0  0  0
    4.4812    1.0682   -2.8376 H   0  0  0  0  0  0  0  0  0  0  0  0
    4.4373   -0.6862   -3.0634 H   0  0  0  0  0  0  0  0  0  0  0  0
    3.5376    0.3706   -4.1655 H   0  0  0  0  0  0  0  0  0  0  0  0
    1.9924   -0.6945   -2.5254 H   0  0  0  0  0  0  0  0  0  0  0  0
    2.0409    1.0619   -2.2897 H   0  0  0  0  0  0  0  0  0  0  0  0
    4.0471   -1.7242    0.8484 H   0  0  0  0  0  0  0  0  0  0  0  0
    5.1684   -0.6885    1.7721 H   0  0  0  0  0  0  0  0  0  0  0  0
    2.7556   -2.2042    2.9044 H   0  0  0  0  0  0  0  0  0  0  0  0
    4.4597   -2.5864    3.1852 H   0  0  0  0  0  0  0  0  0  0  0  0
    3.7708   -1.0867    3.8288 H   0  0  0  0  0  0  0  0  0  0  0  0
   -0.1593    0.2891    1.6714 H   0  0  0  0  0  0  0  0  0  0  0  0
   -0.2517   -1.2432    2.6198 H   0  0  0  0  0  0  0  0  0  0  0  0
   -2.5176    3.3716    1.0786 H   0  0  0  0  0  0  0  0  0  0  0  0
   -3.7893    2.6090    0.0788 H   0  0  0  0  0  0  0  0  0  0  0  0
   -2.7433    1.4888    2.7294 H   0  0  0  0  0  0  0  0  0  0  0  0
   -4.2680    2.3609    2.5190 H   0  0  0  0  0  0  0  0  0  0  0  0
   -4.0355    0.7884    1.7407 H   0  0  0  0  0  0  0  0  0  0  0  0
   -5.0937   -0.3480   -2.1657 H   0  0  0  0  0  0  0  0  0  0  0  0
   -3.4782   -0.4932   -2.9232 H   0  0  0  0  0  0  0  0  0  0  0  0
   -4.4434   -2.7347   -2.3088 H   0  0  0  0  0  0  0  0  0  0  0  0
   -2.9170   -2.3949   -1.4824 H   0  0  0  0  0  0  0  0  0  0  0  0
   -4.4459   -2.2398   -0.6054 H   0  0  0  0  0  0  0  0  0  0  0  0
  1  2  1  0  0  0  0
  2  3  1  0  0  0  0
  3  4  2  0  0  0  0
  4  5  2  0  0  0  0
  4  6  2  0  0  0  0
  6  7  1  0  0  0  0
  7  8  1  0  0  0  0
  4  9  1  0  0  0  0
  9 10  1  0  0  0  0
 10 11  1  0  0  0  0
 11 12  1  0  0  0  0
 12 13  2  0  0  0  0
 12 14  2  0  0  0  0
 14 15  1  0  0  0  0
 15 16  1  0  0  0  0
 12 17  2  0  0  0  0
 17 18  1  0  0  0  0
 18 19  1  0  0  0  0
  1 20  1  0  0  0  0
  1 21  1  0  0  0  0
  1 22  1  0  0  0  0
  2 23  1  0  0  0  0
  2 24  1  0  0  0  0
  7 25  1  0  0  0  0
  7 26  1  0  0  0  0
  8 27  1  0  0  0  0
  8 28  1  0  0  0  0
  8 29  1  0  0  0  0
 10 30  1  0  0  0  0
 10 31  1  0  0  0  0
 15 32  1  0  0  0  0
 15 33  1  0  0  0  0
 16 34  1  0  0  0  0
 16 35  1  0  0  0  0
 16 36  1  0  0  0  0
 18 37  1  0  0  0  0
 18 38  1  0  0  0  0
 19 39  1  0  0  0  0
 19 40  1  0  0  0  0
 19 41  1  0  0  0  0
M  END
