 xtb: 6.7.1 (edcfbbe)
          04092505203D

 41 40  0     0  0            999 V2000
    3.1322    1.5137    2.9476 C   0  0  0  0  0  0  0  0  0  0  0  0
    1.7534    0.9922    2.6035 C   0  0  0  0  0  0  0  0  0  0  0  0
    1.5712    0.8748    1.1759 O   0  0  0  0  0  0  0  0  0  0  0  0
    2.3200   -0.2268    0.3176 P   0  0  0  0  0  0  0  0  0  0  0  0
    2.7143   -1.9145    1.2404 S   0  0  0  0  0  0  0  0  0  0  0  0
    3.5830    0.5771   -0.2108 O   0  0  0  0  0  0  0  0  0  0  0  0
    4.7284   -0.0757   -0.7848 C   0  0  0  0  0  0  0  0  0  0  0  0
    4.4100   -0.7169   -2.1201 C   0  0  0  0  0  0  0  0  0  0  0  0
    1.0158   -0.3284   -1.3468 S   0  0  0  0  0  0  0  0  0  0  0  0
   -0.1375   -1.5120   -0.5972 C   0  0  0  0  0  0  0  0  0  0  0  0
   -1.1970   -0.7646    0.6601 S   0  0  0  0  0  0  0  0  0  0  0  0
   -2.4651    0.2892   -0.6993 P   0  0  0  0  0  0  0  0  0  0  0  0
   -2.8194   -0.6147   -2.3977 S   0  0  0  0  0  0  0  0  0  0  0  0
   -1.8076    1.6993   -0.9461 O   0  0  0  0  0  0  0  0  0  0  0  0
   -1.1506    2.5673    0.0082 C   0  0  0  0  0  0  0  0  0  0  0  0
   -1.9513    2.7747    1.2753 C   0  0  0  0  0  0  0  0  0  0  0  0
   -3.7577    0.6394    0.1555 O   0  0  0  0  0  0  0  0  0  0  0  0
   -4.8880   -0.2457    0.2429 C   0  0  0  0  0  0  0  0  0  0  0  0
   -4.5647   -1.5225    0.9918 C   0  0  0  0  0  0  0  0  0  0  0  0
    3.1976    1.6805    4.0181 H   0  0  0  0  0  0  0  0  0  0  0  0
    3.8867    0.7836    2.6569 H   0  0  0  0  0  0  0  0  0  0  0  0
    3.3244    2.4452    2.4218 H   0  0  0  0  0  0  0  0  0  0  0  0
    0.9674    1.6821    2.9128 H   0  0  0  0  0  0  0  0  0  0  0  0
    1.5835    0.0099    3.0550 H   0  0  0  0  0  0  0  0  0  0  0  0
    5.4628    0.7244   -0.8867 H   0  0  0  0  0  0  0  0  0  0  0  0
    5.0900   -0.8273   -0.0755 H   0  0  0  0  0  0  0  0  0  0  0  0
    3.9517    0.0079   -2.7886 H   0  0  0  0  0  0  0  0  0  0  0  0
    5.3247   -1.0925   -2.5674 H   0  0  0  0  0  0  0  0  0  0  0  0
    3.7189   -1.5475   -1.9802 H   0  0  0  0  0  0  0  0  0  0  0  0
    0.4269   -2.3077   -0.1102 H   0  0  0  0  0  0  0  0  0  0  0  0
   -0.7584   -1.8984   -1.4065 H   0  0  0  0  0  0  0  0  0  0  0  0
   -0.1671    2.1439    0.2288 H   0  0  0  0  0  0  0  0  0  0  0  0
   -1.0288    3.4975   -0.5494 H   0  0  0  0  0  0  0  0  0  0  0  0
   -1.4455    3.5083    1.8961 H   0  0  0  0  0  0  0  0  0  0  0  0
   -2.9487    3.1338    1.0356 H   0  0  0  0  0  0  0  0  0  0  0  0
   -2.0372    1.8394    1.8256 H   0  0  0  0  0  0  0  0  0  0  0  0
   -5.6411    0.3469    0.7642 H   0  0  0  0  0  0  0  0  0  0  0  0
   -5.2289   -0.4721   -0.7722 H   0  0  0  0  0  0  0  0  0  0  0  0
   -3.8680   -2.1278    0.4140 H   0  0  0  0  0  0  0  0  0  0  0  0
   -4.1167   -1.2950    1.9557 H   0  0  0  0  0  0  0  0  0  0  0  0
   -5.4779   -2.0890    1.1433 H   0  0  0  0  0  0  0  0  0  0  0  0
  1  2  1  0  0  0  0
  2  3  1  0  0  0  0
  3  4  2  0  0  0  0
  4  5  2  0  0  0  0
  4  6  2  0  0  0  0
  6  7  1  0  0  0  0
  7  8  1  0  0  0  0
  4  9  1  0  0  0  0
  9 10  1  0  0  0  0
 10 11  1  0  0  0  0
 11 12  1  0  0  0  0
 12 13  2  0  0  0  0
 12 14  2  0  0  0  0
 14 15  1  0  0  0  0
 15 16  1  0  0  0  0
 12 17  2  0  0  0  0
 17 18  1  0  0  0  0
 18 19  1  0  0  0  0
  1 20  1  0  0  0  0
  1 21  1  0  0  0  0
  1 22  1  0  0  0  0
  2 23  1  0  0  0  0
  2 24  1  0  0  0  0
  7 25  1  0  0  0  0
  7 26  1  0  0  0  0
  8 27  1  0  0  0  0
  8 28  1  0  0  0  0
  8 29  1  0  0  0  0
 10 30  1  0  0  0  0
 10 31  1  0  0  0  0
 15 32  1  0  0  0  0
 15 33  1  0  0  0  0
 16 34  1  0  0  0  0
 16 35  1  0  0  0  0
 16 36  1  0  0  0  0
 18 37  1  0  0  0  0
 18 38  1  0  0  0  0
 19 39  1  0  0  0  0
 19 40  1  0  0  0  0
 19 41  1  0  0  0  0
M  END
