 xtb: 6.7.1 (edcfbbe)
          04092507313D

 38 37  0     0  0            999 V2000
    1.5960   -3.6304   -2.1522 C   0  0  0  0  0  0  0  0  0  0  0  0
    2.7072   -3.2874   -1.1729 C   0  0  0  0  0  0  0  0  0  0  0  0
    2.7588   -1.8669   -0.9379 O   0  0  0  0  0  0  0  0  0  0  0  0
    1.9684   -1.3536   -0.0222 C   0  0  0  0  0  0  0  0  0  0  0  0
    1.2367   -1.9928    0.7028 O   0  0  0  0  0  0  0  0  0  0  0  0
    2.0633    0.1616    0.0093 C   0  0  0  0  0  0  0  0  0  0  0  0
    1.1094    0.7471   -1.0489 C   0  0  0  0  0  0  0  0  0  0  0  0
    1.6375    0.9375   -1.9840 H   0  0  0  0  0  0  0  0  0  0  0  0
    0.4702    2.0212   -0.5247 C   0  0  0  0  0  0  0  0  0  0  0  0
   -0.7194    2.0887   -0.2833 O   0  0  0  0  0  0  0  0  0  0  0  0
    1.3354    2.9769   -0.3550 O   0  0  0  0  0  0  0  0  0  0  0  0
    0.8894    4.2045    0.2676 C   0  0  0  0  0  0  0  0  0  0  0  0
    0.9391    4.0772    1.7811 C   0  0  0  0  0  0  0  0  0  0  0  0
   -0.2607   -0.3749   -1.5044 S   0  0  0  0  0  0  0  0  0  0  0  0
   -1.3761   -0.3436    0.2873 P   0  0  0  0  0  0  0  0  0  0  0  0
   -0.7859    0.2621    2.0647 S   0  0  0  0  0  0  0  0  0  0  0  0
   -2.8494    0.1612   -0.0880 O   0  0  0  0  0  0  0  0  0  0  0  0
   -3.4089    1.4301    0.2473 C   0  0  0  0  0  0  0  0  0  0  0  0
   -1.6489   -1.9202    0.2128 O   0  0  0  0  0  0  0  0  0  0  0  0
   -2.3712   -2.5991    1.2420 C   0  0  0  0  0  0  0  0  0  0  0  0
    1.6115   -4.6959   -2.3556 H   0  0  0  0  0  0  0  0  0  0  0  0
    0.6288   -3.3634   -1.7304 H   0  0  0  0  0  0  0  0  0  0  0  0
    1.7312   -3.0821   -3.0801 H   0  0  0  0  0  0  0  0  0  0  0  0
    3.6883   -3.5312   -1.5802 H   0  0  0  0  0  0  0  0  0  0  0  0
    2.5516   -3.7940   -0.2161 H   0  0  0  0  0  0  0  0  0  0  0  0
    3.0834    0.4745   -0.2033 H   0  0  0  0  0  0  0  0  0  0  0  0
    1.7682    0.4871    1.0086 H   0  0  0  0  0  0  0  0  0  0  0  0
    1.5874    4.9582   -0.0953 H   0  0  0  0  0  0  0  0  0  0  0  0
   -0.1259    4.4210   -0.0731 H   0  0  0  0  0  0  0  0  0  0  0  0
    1.9521    3.8616    2.1086 H   0  0  0  0  0  0  0  0  0  0  0  0
    0.6075    5.0067    2.2314 H   0  0  0  0  0  0  0  0  0  0  0  0
    0.2861    3.2722    2.1157 H   0  0  0  0  0  0  0  0  0  0  0  0
   -4.4766    1.2624    0.3686 H   0  0  0  0  0  0  0  0  0  0  0  0
   -3.2140    2.1372   -0.5561 H   0  0  0  0  0  0  0  0  0  0  0  0
   -2.9693    1.7989    1.1754 H   0  0  0  0  0  0  0  0  0  0  0  0
   -1.9626   -2.3359    2.2199 H   0  0  0  0  0  0  0  0  0  0  0  0
   -2.2310   -3.6595    1.0491 H   0  0  0  0  0  0  0  0  0  0  0  0
   -3.4274   -2.3334    1.1964 H   0  0  0  0  0  0  0  0  0  0  0  0
  1  2  1  0  0  0  0
  2  3  1  0  0  0  0
  3  4  4  0  0  0  0
  4  5  2  0  0  0  0
  4  6  1  0  0  0  0
  6  7  1  0  0  0  0
  7  8  1  0  0  0  0
  7  9  1  0  0  0  0
  9 10  2  0  0  0  0
  9 11  4  0  0  0  0
 11 12  1  0  0  0  0
 12 13  1  0  0  0  0
  7 14  1  0  0  0  0
 14 15  1  0  0  0  0
 15 16  2  0  0  0  0
 15 17  1  0  0  0  0
 17 18  1  0  0  0  0
 15 19  1  0  0  0  0
 19 20  1  0  0  0  0
  1 21  1  0  0  0  0
  1 22  1  0  0  0  0
  1 23  1  0  0  0  0
  2 24  1  0  0  0  0
  2 25  1  0  0  0  0
  6 26  1  0  0  0  0
  6 27  1  0  0  0  0
 12 28  1  0  0  0  0
 12 29  1  0  0  0  0
 13 30  1  0  0  0  0
 13 31  1  0  0  0  0
 13 32  1  0  0  0  0
 18 33  1  0  0  0  0
 18 34  1  0  0  0  0
 18 35  1  0  0  0  0
 20 36  1  0  0  0  0
 20 37  1  0  0  0  0
 20 38  1  0  0  0  0
M  END
