 xtb: 6.7.1 (edcfbbe)
          04092505203D

 41 40  0     0  0            999 V2000
    3.0641    0.5994    3.1259 C   0  0  0  0  0  0  0  0  0  0  0  0
    1.6605    0.2482    2.6813 C   0  0  0  0  0  0  0  0  0  0  0  0
    1.4676    0.5153    1.2737 O   0  0  0  0  0  0  0  0  0  0  0  0
    2.1947   -0.3452    0.1636 P   0  0  0  0  0  0  0  0  0  0  0  0
    2.5839   -2.2150    0.6183 S   0  0  0  0  0  0  0  0  0  0  0  0
    3.4610    0.5534   -0.1640 O   0  0  0  0  0  0  0  0  0  0  0  0
    4.4901    0.1101   -1.0715 C   0  0  0  0  0  0  0  0  0  0  0  0
    5.7450    0.9085   -0.7805 C   0  0  0  0  0  0  0  0  0  0  0  0
    0.9389   -0.0402   -1.5109 S   0  0  0  0  0  0  0  0  0  0  0  0
   -0.1653   -1.4424   -1.1822 C   0  0  0  0  0  0  0  0  0  0  0  0
   -1.2003   -1.1956    0.2770 S   0  0  0  0  0  0  0  0  0  0  0  0
   -2.3876    0.3786   -0.5557 P   0  0  0  0  0  0  0  0  0  0  0  0
   -2.7642    0.2474   -2.4673 S   0  0  0  0  0  0  0  0  0  0  0  0
   -1.6211    1.7080   -0.1911 O   0  0  0  0  0  0  0  0  0  0  0  0
   -1.3496    2.1209    1.1702 C   0  0  0  0  0  0  0  0  0  0  0  0
   -2.3554    3.1595    1.6218 C   0  0  0  0  0  0  0  0  0  0  0  0
   -3.6526    0.4360    0.4051 O   0  0  0  0  0  0  0  0  0  0  0  0
   -4.8333   -0.3567    0.1786 C   0  0  0  0  0  0  0  0  0  0  0  0
   -4.5708   -1.8417    0.3204 C   0  0  0  0  0  0  0  0  0  0  0  0
    3.7801   -0.0586    2.6349 H   0  0  0  0  0  0  0  0  0  0  0  0
    3.2956    1.6283    2.8640 H   0  0  0  0  0  0  0  0  0  0  0  0
    3.1453    0.4700    4.2005 H   0  0  0  0  0  0  0  0  0  0  0  0
    0.9112    0.8699    3.1726 H   0  0  0  0  0  0  0  0  0  0  0  0
    1.4465   -0.8094    2.8649 H   0  0  0  0  0  0  0  0  0  0  0  0
    4.6522   -0.9626   -0.9191 H   0  0  0  0  0  0  0  0  0  0  0  0
    4.1378    0.2763   -2.0931 H   0  0  0  0  0  0  0  0  0  0  0  0
    6.5224    0.6152   -1.4783 H   0  0  0  0  0  0  0  0  0  0  0  0
    5.5421    1.9696   -0.8923 H   0  0  0  0  0  0  0  0  0  0  0  0
    6.0841    0.7189    0.2340 H   0  0  0  0  0  0  0  0  0  0  0  0
    0.4286   -2.3384   -1.0012 H   0  0  0  0  0  0  0  0  0  0  0  0
   -0.7980   -1.5501   -2.0632 H   0  0  0  0  0  0  0  0  0  0  0  0
   -1.3708    1.2391    1.8170 H   0  0  0  0  0  0  0  0  0  0  0  0
   -0.3370    2.5285    1.1365 H   0  0  0  0  0  0  0  0  0  0  0  0
   -3.3530    2.7294    1.6490 H   0  0  0  0  0  0  0  0  0  0  0  0
   -2.0865    3.5072    2.6143 H   0  0  0  0  0  0  0  0  0  0  0  0
   -2.3541    4.0002    0.9335 H   0  0  0  0  0  0  0  0  0  0  0  0
   -5.5340    0.0013    0.9341 H   0  0  0  0  0  0  0  0  0  0  0  0
   -5.2129   -0.1275   -0.8216 H   0  0  0  0  0  0  0  0  0  0  0  0
   -4.0803   -2.0529    1.2674 H   0  0  0  0  0  0  0  0  0  0  0  0
   -5.5139   -2.3768    0.2751 H   0  0  0  0  0  0  0  0  0  0  0  0
   -3.9318   -2.1870   -0.4909 H   0  0  0  0  0  0  0  0  0  0  0  0
  1  2  1  0  0  0  0
  2  3  1  0  0  0  0
  3  4  2  0  0  0  0
  4  5  2  0  0  0  0
  4  6  2  0  0  0  0
  6  7  1  0  0  0  0
  7  8  1  0  0  0  0
  4  9  1  0  0  0  0
  9 10  1  0  0  0  0
 10 11  1  0  0  0  0
 11 12  1  0  0  0  0
 12 13  2  0  0  0  0
 12 14  2  0  0  0  0
 14 15  1  0  0  0  0
 15 16  1  0  0  0  0
 12 17  2  0  0  0  0
 17 18  1  0  0  0  0
 18 19  1  0  0  0  0
  1 20  1  0  0  0  0
  1 21  1  0  0  0  0
  1 22  1  0  0  0  0
  2 23  1  0  0  0  0
  2 24  1  0  0  0  0
  7 25  1  0  0  0  0
  7 26  1  0  0  0  0
  8 27  1  0  0  0  0
  8 28  1  0  0  0  0
  8 29  1  0  0  0  0
 10 30  1  0  0  0  0
 10 31  1  0  0  0  0
 15 32  1  0  0  0  0
 15 33  1  0  0  0  0
 16 34  1  0  0  0  0
 16 35  1  0  0  0  0
 16 36  1  0  0  0  0
 18 37  1  0  0  0  0
 18 38  1  0  0  0  0
 19 39  1  0  0  0  0
 19 40  1  0  0  0  0
 19 41  1  0  0  0  0
M  END
