 xtb: 6.7.1 (edcfbbe)
          04092505213D

 41 40  0     0  0            999 V2000
    3.4005   -0.8607   -2.9968 C   0  0  0  0  0  0  0  0  0  0  0  0
    3.9940    0.3042   -2.2289 C   0  0  0  0  0  0  0  0  0  0  0  0
    3.8066    0.1628   -0.8126 O   0  0  0  0  0  0  0  0  0  0  0  0
    2.4211    0.4113   -0.0863 P   0  0  0  0  0  0  0  0  0  0  0  0
    1.2960    1.7635   -0.9662 S   0  0  0  0  0  0  0  0  0  0  0  0
    3.0703    0.7716    1.3047 O   0  0  0  0  0  0  0  0  0  0  0  0
    2.4055    0.8856    2.5770 C   0  0  0  0  0  0  0  0  0  0  0  0
    2.6146   -0.3704    3.4004 C   0  0  0  0  0  0  0  0  0  0  0  0
    1.5212   -1.4943    0.1811 S   0  0  0  0  0  0  0  0  0  0  0  0
    0.2166   -1.4249   -1.0967 C   0  0  0  0  0  0  0  0  0  0  0  0
   -1.4088   -1.9237   -0.4784 S   0  0  0  0  0  0  0  0  0  0  0  0
   -2.0880   -0.0965    0.3131 P   0  0  0  0  0  0  0  0  0  0  0  0
   -1.1015    0.7755    1.7570 S   0  0  0  0  0  0  0  0  0  0  0  0
   -3.5631   -0.4096    0.7965 O   0  0  0  0  0  0  0  0  0  0  0  0
   -4.5677   -1.0144   -0.0550 C   0  0  0  0  0  0  0  0  0  0  0  0
   -4.7391   -2.4811    0.2848 C   0  0  0  0  0  0  0  0  0  0  0  0
   -2.1873    0.7245   -1.0580 O   0  0  0  0  0  0  0  0  0  0  0  0
   -2.2500    2.1605   -1.0880 C   0  0  0  0  0  0  0  0  0  0  0  0
   -3.5743    2.6732   -0.5617 C   0  0  0  0  0  0  0  0  0  0  0  0
    2.3137   -0.8203   -2.9504 H   0  0  0  0  0  0  0  0  0  0  0  0
    3.7099   -0.8007   -4.0354 H   0  0  0  0  0  0  0  0  0  0  0  0
    3.7419   -1.8014   -2.5725 H   0  0  0  0  0  0  0  0  0  0  0  0
    3.5464    1.2501   -2.5516 H   0  0  0  0  0  0  0  0  0  0  0  0
    5.0778    0.3505   -2.3445 H   0  0  0  0  0  0  0  0  0  0  0  0
    2.8728    1.7501    3.0531 H   0  0  0  0  0  0  0  0  0  0  0  0
    1.3418    1.0907    2.4298 H   0  0  0  0  0  0  0  0  0  0  0  0
    3.6764   -0.5807    3.4922 H   0  0  0  0  0  0  0  0  0  0  0  0
    2.1869   -0.2184    4.3860 H   0  0  0  0  0  0  0  0  0  0  0  0
    2.1248   -1.2210    2.9317 H   0  0  0  0  0  0  0  0  0  0  0  0
    0.4619   -2.1427   -1.8749 H   0  0  0  0  0  0  0  0  0  0  0  0
    0.1610   -0.4032   -1.4825 H   0  0  0  0  0  0  0  0  0  0  0  0
   -5.4792   -0.4520    0.1557 H   0  0  0  0  0  0  0  0  0  0  0  0
   -4.2802   -0.8784   -1.1004 H   0  0  0  0  0  0  0  0  0  0  0  0
   -3.8274   -3.0323    0.0650 H   0  0  0  0  0  0  0  0  0  0  0  0
   -4.9701   -2.5921    1.3406 H   0  0  0  0  0  0  0  0  0  0  0  0
   -5.5534   -2.8887   -0.3058 H   0  0  0  0  0  0  0  0  0  0  0  0
   -1.4152    2.5602   -0.5033 H   0  0  0  0  0  0  0  0  0  0  0  0
   -2.1006    2.4095   -2.1396 H   0  0  0  0  0  0  0  0  0  0  0  0
   -3.5967    3.7553   -0.6440 H   0  0  0  0  0  0  0  0  0  0  0  0
   -4.3979    2.2508   -1.1317 H   0  0  0  0  0  0  0  0  0  0  0  0
   -3.6860    2.3966    0.4867 H   0  0  0  0  0  0  0  0  0  0  0  0
  1  2  1  0  0  0  0
  2  3  1  0  0  0  0
  3  4  2  0  0  0  0
  4  5  2  0  0  0  0
  4  6  2  0  0  0  0
  6  7  1  0  0  0  0
  7  8  1  0  0  0  0
  4  9  1  0  0  0  0
  9 10  1  0  0  0  0
 10 11  1  0  0  0  0
 11 12  1  0  0  0  0
 12 13  2  0  0  0  0
 12 14  2  0  0  0  0
 14 15  1  0  0  0  0
 15 16  1  0  0  0  0
 12 17  1  0  0  0  0
 17 18  1  0  0  0  0
 18 19  1  0  0  0  0
  1 20  1  0  0  0  0
  1 21  1  0  0  0  0
  1 22  1  0  0  0  0
  2 23  1  0  0  0  0
  2 24  1  0  0  0  0
  7 25  1  0  0  0  0
  7 26  1  0  0  0  0
  8 27  1  0  0  0  0
  8 28  1  0  0  0  0
  8 29  1  0  0  0  0
 10 30  1  0  0  0  0
 10 31  1  0  0  0  0
 15 32  1  0  0  0  0
 15 33  1  0  0  0  0
 16 34  1  0  0  0  0
 16 35  1  0  0  0  0
 16 36  1  0  0  0  0
 18 37  1  0  0  0  0
 18 38  1  0  0  0  0
 19 39  1  0  0  0  0
 19 40  1  0  0  0  0
 19 41  1  0  0  0  0
M  END
