 xtb: 6.7.1 (edcfbbe)
          04092505213D

 41 40  0     0  0            999 V2000
    2.4149    1.4599    2.7134 C   0  0  0  0  0  0  0  0  0  0  0  0
    1.6782    0.1387    2.7044 C   0  0  0  0  0  0  0  0  0  0  0  0
    2.2818   -0.8414    1.8237 O   0  0  0  0  0  0  0  0  0  0  0  0
    2.6870   -0.6665    0.3134 P   0  0  0  0  0  0  0  0  0  0  0  0
    2.9872   -2.4174   -0.5117 S   0  0  0  0  0  0  0  0  0  0  0  0
    3.9575    0.2836    0.3707 O   0  0  0  0  0  0  0  0  0  0  0  0
    4.9200    0.3489   -0.6951 C   0  0  0  0  0  0  0  0  0  0  0  0
    4.3353    0.9379   -1.9628 C   0  0  0  0  0  0  0  0  0  0  0  0
    1.1648    0.5270   -0.5990 S   0  0  0  0  0  0  0  0  0  0  0  0
   -0.0296   -0.8113   -0.8345 C   0  0  0  0  0  0  0  0  0  0  0  0
   -1.2970   -0.8510    0.4479 S   0  0  0  0  0  0  0  0  0  0  0  0
   -2.6875    0.4273   -0.5646 P   0  0  0  0  0  0  0  0  0  0  0  0
   -2.8434    0.0340   -2.4799 S   0  0  0  0  0  0  0  0  0  0  0  0
   -2.2473    1.9297   -0.4058 O   0  0  0  0  0  0  0  0  0  0  0  0
   -2.3844    2.7632    0.7721 C   0  0  0  0  0  0  0  0  0  0  0  0
   -1.4187    2.3671    1.8690 C   0  0  0  0  0  0  0  0  0  0  0  0
   -3.9812    0.3596    0.3497 O   0  0  0  0  0  0  0  0  0  0  0  0
   -4.5938   -0.8504    0.8335 C   0  0  0  0  0  0  0  0  0  0  0  0
   -4.9674   -1.8029   -0.2824 C   0  0  0  0  0  0  0  0  0  0  0  0
    1.9549    2.1161    3.4460 H   0  0  0  0  0  0  0  0  0  0  0  0
    3.4592    1.3070    2.9721 H   0  0  0  0  0  0  0  0  0  0  0  0
    2.3645    1.9285    1.7323 H   0  0  0  0  0  0  0  0  0  0  0  0
    0.6371    0.2658    2.3978 H   0  0  0  0  0  0  0  0  0  0  0  0
    1.7138   -0.3507    3.6787 H   0  0  0  0  0  0  0  0  0  0  0  0
    5.7151    0.9759   -0.2893 H   0  0  0  0  0  0  0  0  0  0  0  0
    5.2999   -0.6606   -0.8817 H   0  0  0  0  0  0  0  0  0  0  0  0
    5.1269    1.0782   -2.6918 H   0  0  0  0  0  0  0  0  0  0  0  0
    3.5915    0.2603   -2.3802 H   0  0  0  0  0  0  0  0  0  0  0  0
    3.8620    1.8942   -1.7553 H   0  0  0  0  0  0  0  0  0  0  0  0
    0.5044   -1.7635   -0.8153 H   0  0  0  0  0  0  0  0  0  0  0  0
   -0.5218   -0.6630   -1.7987 H   0  0  0  0  0  0  0  0  0  0  0  0
   -2.1682    3.7626    0.3916 H   0  0  0  0  0  0  0  0  0  0  0  0
   -3.4191    2.7095    1.1141 H   0  0  0  0  0  0  0  0  0  0  0  0
   -0.4056    2.3371    1.4753 H   0  0  0  0  0  0  0  0  0  0  0  0
   -1.4696    3.1013    2.6668 H   0  0  0  0  0  0  0  0  0  0  0  0
   -1.6795    1.3901    2.2706 H   0  0  0  0  0  0  0  0  0  0  0  0
   -3.9025   -1.3276    1.5334 H   0  0  0  0  0  0  0  0  0  0  0  0
   -5.4773   -0.4944    1.3663 H   0  0  0  0  0  0  0  0  0  0  0  0
   -5.5001   -2.6532    0.1312 H   0  0  0  0  0  0  0  0  0  0  0  0
   -5.5984   -1.3031   -1.0137 H   0  0  0  0  0  0  0  0  0  0  0  0
   -4.0719   -2.1590   -0.7900 H   0  0  0  0  0  0  0  0  0  0  0  0
  1  2  1  0  0  0  0
  2  3  1  0  0  0  0
  3  4  2  0  0  0  0
  4  5  2  0  0  0  0
  4  6  2  0  0  0  0
  6  7  1  0  0  0  0
  7  8  1  0  0  0  0
  4  9  1  0  0  0  0
  9 10  1  0  0  0  0
 10 11  1  0  0  0  0
 11 12  1  0  0  0  0
 12 13  2  0  0  0  0
 12 14  2  0  0  0  0
 14 15  1  0  0  0  0
 15 16  1  0  0  0  0
 12 17  2  0  0  0  0
 17 18  1  0  0  0  0
 18 19  1  0  0  0  0
  1 20  1  0  0  0  0
  1 21  1  0  0  0  0
  1 22  1  0  0  0  0
  2 23  1  0  0  0  0
  2 24  1  0  0  0  0
  7 25  1  0  0  0  0
  7 26  1  0  0  0  0
  8 27  1  0  0  0  0
  8 28  1  0  0  0  0
  8 29  1  0  0  0  0
 10 30  1  0  0  0  0
 10 31  1  0  0  0  0
 15 32  1  0  0  0  0
 15 33  1  0  0  0  0
 16 34  1  0  0  0  0
 16 35  1  0  0  0  0
 16 36  1  0  0  0  0
 18 37  1  0  0  0  0
 18 38  1  0  0  0  0
 19 39  1  0  0  0  0
 19 40  1  0  0  0  0
 19 41  1  0  0  0  0
M  END
