 xtb: 6.7.1 (edcfbbe)
          04092505213D

 41 40  0     0  0            999 V2000
    4.3419   -0.7787   -2.9419 C   0  0  0  0  0  0  0  0  0  0  0  0
    4.4196   -0.0955   -1.5906 C   0  0  0  0  0  0  0  0  0  0  0  0
    3.4664   -0.6750   -0.6775 O   0  0  0  0  0  0  0  0  0  0  0  0
    2.0810    0.0630   -0.3481 P   0  0  0  0  0  0  0  0  0  0  0  0
    1.0962    0.6012   -1.9523 S   0  0  0  0  0  0  0  0  0  0  0  0
    2.4489    1.3314    0.5257 O   0  0  0  0  0  0  0  0  0  0  0  0
    2.7634    1.3412    1.9373 C   0  0  0  0  0  0  0  0  0  0  0  0
    3.9327    0.4449    2.2862 C   0  0  0  0  0  0  0  0  0  0  0  0
    1.2884   -1.4480    0.8797 S   0  0  0  0  0  0  0  0  0  0  0  0
   -0.0135   -2.0602   -0.2360 C   0  0  0  0  0  0  0  0  0  0  0  0
   -1.6913   -1.8756    0.4225 S   0  0  0  0  0  0  0  0  0  0  0  0
   -1.9574    0.2343    0.2880 P   0  0  0  0  0  0  0  0  0  0  0  0
   -0.6903    1.3777    1.2461 S   0  0  0  0  0  0  0  0  0  0  0  0
   -3.4563    0.3726    0.7902 O   0  0  0  0  0  0  0  0  0  0  0  0
   -3.7994    0.2038    2.1821 C   0  0  0  0  0  0  0  0  0  0  0  0
   -5.1746    0.8017    2.3983 C   0  0  0  0  0  0  0  0  0  0  0  0
   -2.0468    0.5900   -1.2382 O   0  0  0  0  0  0  0  0  0  0  0  0
   -2.9386   -0.0575   -2.1809 C   0  0  0  0  0  0  0  0  0  0  0  0
   -4.2240    0.7287   -2.3306 C   0  0  0  0  0  0  0  0  0  0  0  0
    5.1150   -0.3802   -3.5911 H   0  0  0  0  0  0  0  0  0  0  0  0
    4.4842   -1.8489   -2.8226 H   0  0  0  0  0  0  0  0  0  0  0  0
    3.3690   -0.6004   -3.3949 H   0  0  0  0  0  0  0  0  0  0  0  0
    4.2277    0.9790   -1.6810 H   0  0  0  0  0  0  0  0  0  0  0  0
    5.3929   -0.2546   -1.1221 H   0  0  0  0  0  0  0  0  0  0  0  0
    2.9825    2.3920    2.1337 H   0  0  0  0  0  0  0  0  0  0  0  0
    1.8606    1.0536    2.4832 H   0  0  0  0  0  0  0  0  0  0  0  0
    4.1429    0.5421    3.3467 H   0  0  0  0  0  0  0  0  0  0  0  0
    3.6928   -0.5948    2.0680 H   0  0  0  0  0  0  0  0  0  0  0  0
    4.8137    0.7335    1.7181 H   0  0  0  0  0  0  0  0  0  0  0  0
    0.1317   -3.1298   -0.3621 H   0  0  0  0  0  0  0  0  0  0  0  0
    0.0682   -1.5283   -1.1881 H   0  0  0  0  0  0  0  0  0  0  0  0
   -3.7870   -0.8659    2.4060 H   0  0  0  0  0  0  0  0  0  0  0  0
   -3.0409    0.7079    2.7898 H   0  0  0  0  0  0  0  0  0  0  0  0
   -5.9035    0.2965    1.7713 H   0  0  0  0  0  0  0  0  0  0  0  0
   -5.4531    0.6824    3.4401 H   0  0  0  0  0  0  0  0  0  0  0  0
   -5.1654    1.8591    2.1487 H   0  0  0  0  0  0  0  0  0  0  0  0
   -2.3685   -0.0782   -3.1120 H   0  0  0  0  0  0  0  0  0  0  0  0
   -3.1360   -1.0775   -1.8391 H   0  0  0  0  0  0  0  0  0  0  0  0
   -4.0024    1.7507   -2.6260 H   0  0  0  0  0  0  0  0  0  0  0  0
   -4.8379    0.2596   -3.0931 H   0  0  0  0  0  0  0  0  0  0  0  0
   -4.7668    0.7452   -1.3894 H   0  0  0  0  0  0  0  0  0  0  0  0
  1  2  1  0  0  0  0
  2  3  1  0  0  0  0
  3  4  1  0  0  0  0
  4  5  2  0  0  0  0
  4  6  2  0  0  0  0
  6  7  1  0  0  0  0
  7  8  1  0  0  0  0
  4  9  1  0  0  0  0
  9 10  1  0  0  0  0
 10 11  1  0  0  0  0
 11 12  1  0  0  0  0
 12 13  2  0  0  0  0
 12 14  2  0  0  0  0
 14 15  1  0  0  0  0
 15 16  1  0  0  0  0
 12 17  2  0  0  0  0
 17 18  1  0  0  0  0
 18 19  1  0  0  0  0
  1 20  1  0  0  0  0
  1 21  1  0  0  0  0
  1 22  1  0  0  0  0
  2 23  1  0  0  0  0
  2 24  1  0  0  0  0
  7 25  1  0  0  0  0
  7 26  1  0  0  0  0
  8 27  1  0  0  0  0
  8 28  1  0  0  0  0
  8 29  1  0  0  0  0
 10 30  1  0  0  0  0
 10 31  1  0  0  0  0
 15 32  1  0  0  0  0
 15 33  1  0  0  0  0
 16 34  1  0  0  0  0
 16 35  1  0  0  0  0
 16 36  1  0  0  0  0
 18 37  1  0  0  0  0
 18 38  1  0  0  0  0
 19 39  1  0  0  0  0
 19 40  1  0  0  0  0
 19 41  1  0  0  0  0
M  END
