 xtb: 6.7.1 (edcfbbe)
          04092505203D

 41 40  0     0  0            999 V2000
    4.2487   -0.0700   -2.4355 C   0  0  0  0  0  0  0  0  0  0  0  0
    2.8396   -0.5752   -2.2060 C   0  0  0  0  0  0  0  0  0  0  0  0
    2.1205    0.2893   -1.2926 O   0  0  0  0  0  0  0  0  0  0  0  0
    2.0324    0.0898    0.2664 P   0  0  0  0  0  0  0  0  0  0  0  0
    0.9809    1.5064    1.1129 S   0  0  0  0  0  0  0  0  0  0  0  0
    3.5548    0.0473    0.7226 O   0  0  0  0  0  0  0  0  0  0  0  0
    3.9601    0.2549    2.0878 C   0  0  0  0  0  0  0  0  0  0  0  0
    3.4741   -0.8482    3.0049 C   0  0  0  0  0  0  0  0  0  0  0  0
    1.4235   -1.9275    0.5415 S   0  0  0  0  0  0  0  0  0  0  0  0
   -0.2212   -1.8710   -0.2161 C   0  0  0  0  0  0  0  0  0  0  0  0
   -1.4828   -1.0586    0.8138 S   0  0  0  0  0  0  0  0  0  0  0  0
   -2.0503    0.5405   -0.4726 P   0  0  0  0  0  0  0  0  0  0  0  0
   -0.9985    0.7549   -2.1111 S   0  0  0  0  0  0  0  0  0  0  0  0
   -2.1161    1.8469    0.3974 O   0  0  0  0  0  0  0  0  0  0  0  0
   -2.4287    1.9409    1.8068 C   0  0  0  0  0  0  0  0  0  0  0  0
   -3.7371    1.2705    2.1624 C   0  0  0  0  0  0  0  0  0  0  0  0
   -3.6019    0.3025   -0.7657 O   0  0  0  0  0  0  0  0  0  0  0  0
   -4.0915   -0.4948   -1.8536 C   0  0  0  0  0  0  0  0  0  0  0  0
   -3.7929   -1.9700   -1.6724 C   0  0  0  0  0  0  0  0  0  0  0  0
    4.8206   -0.1147   -1.5125 H   0  0  0  0  0  0  0  0  0  0  0  0
    4.7276   -0.6904   -3.1865 H   0  0  0  0  0  0  0  0  0  0  0  0
    4.2226    0.9592   -2.7836 H   0  0  0  0  0  0  0  0  0  0  0  0
    2.8468   -1.5916   -1.8021 H   0  0  0  0  0  0  0  0  0  0  0  0
    2.2461   -0.5403   -3.1223 H   0  0  0  0  0  0  0  0  0  0  0  0
    5.0492    0.2849    2.0331 H   0  0  0  0  0  0  0  0  0  0  0  0
    3.5764    1.2260    2.4159 H   0  0  0  0  0  0  0  0  0  0  0  0
    2.3893   -0.8070    3.0933 H   0  0  0  0  0  0  0  0  0  0  0  0
    3.7580   -1.8213    2.6118 H   0  0  0  0  0  0  0  0  0  0  0  0
    3.9113   -0.7138    3.9890 H   0  0  0  0  0  0  0  0  0  0  0  0
   -0.5133   -2.9100   -0.3438 H   0  0  0  0  0  0  0  0  0  0  0  0
   -0.1684   -1.3421   -1.1731 H   0  0  0  0  0  0  0  0  0  0  0  0
   -1.5914    1.5133    2.3658 H   0  0  0  0  0  0  0  0  0  0  0  0
   -2.4616    3.0178    1.9785 H   0  0  0  0  0  0  0  0  0  0  0  0
   -3.9528    1.4536    3.2104 H   0  0  0  0  0  0  0  0  0  0  0  0
   -4.5418    1.6701    1.5507 H   0  0  0  0  0  0  0  0  0  0  0  0
   -3.6672    0.1962    1.9981 H   0  0  0  0  0  0  0  0  0  0  0  0
   -5.1649   -0.2997   -1.8538 H   0  0  0  0  0  0  0  0  0  0  0  0
   -3.6468   -0.1233   -2.7827 H   0  0  0  0  0  0  0  0  0  0  0  0
   -4.1155   -2.3034   -0.6895 H   0  0  0  0  0  0  0  0  0  0  0  0
   -4.3179   -2.5358   -2.4353 H   0  0  0  0  0  0  0  0  0  0  0  0
   -2.7240   -2.1478   -1.7767 H   0  0  0  0  0  0  0  0  0  0  0  0
  1  2  1  0  0  0  0
  2  3  1  0  0  0  0
  3  4  2  0  0  0  0
  4  5  2  0  0  0  0
  4  6  2  0  0  0  0
  6  7  1  0  0  0  0
  7  8  1  0  0  0  0
  4  9  1  0  0  0  0
  9 10  1  0  0  0  0
 10 11  1  0  0  0  0
 11 12  1  0  0  0  0
 12 13  2  0  0  0  0
 12 14  2  0  0  0  0
 14 15  1  0  0  0  0
 15 16  1  0  0  0  0
 12 17  2  0  0  0  0
 17 18  1  0  0  0  0
 18 19  1  0  0  0  0
  1 20  1  0  0  0  0
  1 21  1  0  0  0  0
  1 22  1  0  0  0  0
  2 23  1  0  0  0  0
  2 24  1  0  0  0  0
  7 25  1  0  0  0  0
  7 26  1  0  0  0  0
  8 27  1  0  0  0  0
  8 28  1  0  0  0  0
  8 29  1  0  0  0  0
 10 30  1  0  0  0  0
 10 31  1  0  0  0  0
 15 32  1  0  0  0  0
 15 33  1  0  0  0  0
 16 34  1  0  0  0  0
 16 35  1  0  0  0  0
 16 36  1  0  0  0  0
 18 37  1  0  0  0  0
 18 38  1  0  0  0  0
 19 39  1  0  0  0  0
 19 40  1  0  0  0  0
 19 41  1  0  0  0  0
M  END
