 xtb: 6.7.1 (edcfbbe)
          04032519403D

 15 15  0     0  0            999 V2000
   -0.6736   -1.1711    0.3574 C   0  0  0  0  0  0  0  0  0  0  0  0
    0.6520   -1.1208   -0.3923 C   0  0  0  0  0  0  0  0  0  0  0  0
    1.4444   -0.0062    0.0009 O   0  0  0  0  0  0  0  0  0  0  0  0
    0.6782    1.1438    0.3451 C   0  0  0  0  0  0  0  0  0  0  0  0
   -0.6784    1.1497   -0.3605 C   0  0  0  0  0  0  0  0  0  0  0  0
   -1.4889   -0.0090    0.0013 N   0  0  0  0  0  0  0  0  0  0  0  0
   -0.4574   -1.2214    1.4353 H   0  0  0  0  0  0  0  0  0  0  0  0
   -1.2196   -2.0748    0.0745 H   0  0  0  0  0  0  0  0  0  0  0  0
    1.2565   -2.0028   -0.1726 H   0  0  0  0  0  0  0  0  0  0  0  0
    0.4623   -1.0795   -1.4727 H   0  0  0  0  0  0  0  0  0  0  0  0
    0.5328    1.1659    1.4358 H   0  0  0  0  0  0  0  0  0  0  0  0
    1.2786    2.0090    0.0551 H   0  0  0  0  0  0  0  0  0  0  0  0
   -1.2162    2.0660   -0.1201 H   0  0  0  0  0  0  0  0  0  0  0  0
   -0.5104    1.1269   -1.4429 H   0  0  0  0  0  0  0  0  0  0  0  0
   -2.1041    0.2146    0.7740 H   0  0  0  0  0  0  0  0  0  0  0  0
  1  2  1  0  0  0  0
  2  3  1  0  0  0  0
  3  4  1  0  0  0  0
  4  5  1  0  0  0  0
  1  6  1  0  0  0  0
  5  6  1  0  0  0  0
  1  7  1  0  0  0  0
  1  8  1  0  0  0  0
  2  9  1  0  0  0  0
  2 10  1  0  0  0  0
  4 11  1  0  0  0  0
  4 12  1  0  0  0  0
  5 13  1  0  0  0  0
  5 14  1  0  0  0  0
  6 15  1  0  0  0  0
M  END
