 xtb: 6.7.1 (edcfbbe)
          04092505213D

 41 40  0     0  0            999 V2000
    0.6748   -2.6610    0.8895 C   0  0  0  0  0  0  0  0  0  0  0  0
    1.9068   -2.0513    1.5265 C   0  0  0  0  0  0  0  0  0  0  0  0
    2.1506   -0.7120    1.0702 O   0  0  0  0  0  0  0  0  0  0  0  0
    2.5635   -0.3889   -0.4371 P   0  0  0  0  0  0  0  0  0  0  0  0
    3.6234   -1.7742   -1.3260 S   0  0  0  0  0  0  0  0  0  0  0  0
    3.2533    1.0333   -0.2819 O   0  0  0  0  0  0  0  0  0  0  0  0
    4.6727    1.1650   -0.0575 C   0  0  0  0  0  0  0  0  0  0  0  0
    5.0813    0.6497    1.3064 C   0  0  0  0  0  0  0  0  0  0  0  0
    0.7917    0.2329   -1.4067 S   0  0  0  0  0  0  0  0  0  0  0  0
    0.2761    1.5339   -0.2377 C   0  0  0  0  0  0  0  0  0  0  0  0
   -0.6349    0.9104    1.1917 S   0  0  0  0  0  0  0  0  0  0  0  0
   -2.3974    0.4146    0.1379 P   0  0  0  0  0  0  0  0  0  0  0  0
   -2.9277    1.6380   -1.3084 S   0  0  0  0  0  0  0  0  0  0  0  0
   -3.4561    0.1225    1.2846 O   0  0  0  0  0  0  0  0  0  0  0  0
   -3.7550    0.9940    2.3909 C   0  0  0  0  0  0  0  0  0  0  0  0
   -4.0740    2.4100    1.9581 C   0  0  0  0  0  0  0  0  0  0  0  0
   -2.0786   -1.0612   -0.3481 O   0  0  0  0  0  0  0  0  0  0  0  0
   -2.6786   -1.6354   -1.5219 C   0  0  0  0  0  0  0  0  0  0  0  0
   -4.1313   -1.9826   -1.2733 C   0  0  0  0  0  0  0  0  0  0  0  0
    0.8151   -2.7279   -0.1901 H   0  0  0  0  0  0  0  0  0  0  0  0
    0.5202   -3.6593    1.2860 H   0  0  0  0  0  0  0  0  0  0  0  0
   -0.2058   -2.0556    1.0906 H   0  0  0  0  0  0  0  0  0  0  0  0
    2.7883   -2.6587    1.2965 H   0  0  0  0  0  0  0  0  0  0  0  0
    1.7935   -1.9452    2.6060 H   0  0  0  0  0  0  0  0  0  0  0  0
    5.1987    0.6224   -0.8492 H   0  0  0  0  0  0  0  0  0  0  0  0
    4.8530    2.2361   -0.1587 H   0  0  0  0  0  0  0  0  0  0  0  0
    4.9401   -0.4293    1.3517 H   0  0  0  0  0  0  0  0  0  0  0  0
    6.1297    0.8746    1.4750 H   0  0  0  0  0  0  0  0  0  0  0  0
    4.4805    1.1170    2.0823 H   0  0  0  0  0  0  0  0  0  0  0  0
   -0.3739    2.1988   -0.8085 H   0  0  0  0  0  0  0  0  0  0  0  0
    1.1527    2.0550    0.1336 H   0  0  0  0  0  0  0  0  0  0  0  0
   -4.6151    0.5188    2.8662 H   0  0  0  0  0  0  0  0  0  0  0  0
   -2.8999    0.9813    3.0725 H   0  0  0  0  0  0  0  0  0  0  0  0
   -4.8781    2.4121    1.2258 H   0  0  0  0  0  0  0  0  0  0  0  0
   -4.3750    2.9923    2.8230 H   0  0  0  0  0  0  0  0  0  0  0  0
   -3.1968    2.8723    1.5071 H   0  0  0  0  0  0  0  0  0  0  0  0
   -2.5822   -0.9246   -2.3495 H   0  0  0  0  0  0  0  0  0  0  0  0
   -2.0742   -2.5198   -1.7272 H   0  0  0  0  0  0  0  0  0  0  0  0
   -4.5462   -2.4630   -2.1537 H   0  0  0  0  0  0  0  0  0  0  0  0
   -4.2169   -2.6489   -0.4193 H   0  0  0  0  0  0  0  0  0  0  0  0
   -4.6925   -1.0718   -1.0656 H   0  0  0  0  0  0  0  0  0  0  0  0
  1  2  1  0  0  0  0
  2  3  1  0  0  0  0
  3  4  2  0  0  0  0
  4  5  2  0  0  0  0
  4  6  2  0  0  0  0
  6  7  1  0  0  0  0
  7  8  1  0  0  0  0
  4  9  1  0  0  0  0
  9 10  1  0  0  0  0
 10 11  1  0  0  0  0
 11 12  1  0  0  0  0
 12 13  2  0  0  0  0
 12 14  2  0  0  0  0
 14 15  1  0  0  0  0
 15 16  1  0  0  0  0
 12 17  2  0  0  0  0
 17 18  1  0  0  0  0
 18 19  1  0  0  0  0
  1 20  1  0  0  0  0
  1 21  1  0  0  0  0
  1 22  1  0  0  0  0
  2 23  1  0  0  0  0
  2 24  1  0  0  0  0
  7 25  1  0  0  0  0
  7 26  1  0  0  0  0
  8 27  1  0  0  0  0
  8 28  1  0  0  0  0
  8 29  1  0  0  0  0
 10 30  1  0  0  0  0
 10 31  1  0  0  0  0
 15 32  1  0  0  0  0
 15 33  1  0  0  0  0
 16 34  1  0  0  0  0
 16 35  1  0  0  0  0
 16 36  1  0  0  0  0
 18 37  1  0  0  0  0
 18 38  1  0  0  0  0
 19 39  1  0  0  0  0
 19 40  1  0  0  0  0
 19 41  1  0  0  0  0
M  END
