 xtb: 6.7.1 (edcfbbe)
          04092507313D

 38 37  0     0  0            999 V2000
    4.0016   -4.1519   -0.9475 C   0  0  0  0  0  0  0  0  0  0  0  0
    2.6028   -3.6135   -0.7225 C   0  0  0  0  0  0  0  0  0  0  0  0
    2.7019   -2.1858   -0.5365 O   0  0  0  0  0  0  0  0  0  0  0  0
    1.6091   -1.5211   -0.2595 C   0  0  0  0  0  0  0  0  0  0  0  0
    0.5106   -2.0336   -0.1551 O   0  0  0  0  0  0  0  0  0  0  0  0
    1.8698   -0.0481   -0.0537 C   0  0  0  0  0  0  0  0  0  0  0  0
    0.9977    0.8558   -0.9463 C   0  0  0  0  0  0  0  0  0  0  0  0
    1.5429    1.1448   -1.8458 H   0  0  0  0  0  0  0  0  0  0  0  0
    0.6118    2.0929   -0.1480 C   0  0  0  0  0  0  0  0  0  0  0  0
   -0.4947    2.2604    0.3151 O   0  0  0  0  0  0  0  0  0  0  0  0
    1.6312    2.8972    0.0052 O   0  0  0  0  0  0  0  0  0  0  0  0
    1.4439    4.1049    0.7771 C   0  0  0  0  0  0  0  0  0  0  0  0
    0.8744    5.2168   -0.0881 C   0  0  0  0  0  0  0  0  0  0  0  0
   -0.5436    0.1086   -1.5866 S   0  0  0  0  0  0  0  0  0  0  0  0
   -1.5869   -0.2683    0.2006 P   0  0  0  0  0  0  0  0  0  0  0  0
   -0.8655   -0.2483    2.0329 S   0  0  0  0  0  0  0  0  0  0  0  0
   -2.7734    0.7674   -0.0723 O   0  0  0  0  0  0  0  0  0  0  0  0
   -3.7952    1.0048    0.8987 C   0  0  0  0  0  0  0  0  0  0  0  0
   -2.4120   -1.6116   -0.0989 O   0  0  0  0  0  0  0  0  0  0  0  0
   -2.1155   -2.9151    0.3950 C   0  0  0  0  0  0  0  0  0  0  0  0
    3.9525   -5.2256   -1.0941 H   0  0  0  0  0  0  0  0  0  0  0  0
    4.4409   -3.6895   -1.8260 H   0  0  0  0  0  0  0  0  0  0  0  0
    4.6270   -3.9361   -0.0867 H   0  0  0  0  0  0  0  0  0  0  0  0
    2.1356   -4.0449    0.1681 H   0  0  0  0  0  0  0  0  0  0  0  0
    1.9509   -3.8008   -1.5810 H   0  0  0  0  0  0  0  0  0  0  0  0
    2.9234    0.1604   -0.2301 H   0  0  0  0  0  0  0  0  0  0  0  0
    1.6313    0.1462    0.9977 H   0  0  0  0  0  0  0  0  0  0  0  0
    0.7781    3.8822    1.6154 H   0  0  0  0  0  0  0  0  0  0  0  0
    2.4434    4.3486    1.1361 H   0  0  0  0  0  0  0  0  0  0  0  0
    1.5180    5.3911   -0.9457 H   0  0  0  0  0  0  0  0  0  0  0  0
   -0.1194    4.9470   -0.4387 H   0  0  0  0  0  0  0  0  0  0  0  0
    0.8047    6.1264    0.4992 H   0  0  0  0  0  0  0  0  0  0  0  0
   -4.4755    0.1539    0.9423 H   0  0  0  0  0  0  0  0  0  0  0  0
   -4.3150    1.8985    0.5633 H   0  0  0  0  0  0  0  0  0  0  0  0
   -3.3467    1.1718    1.8803 H   0  0  0  0  0  0  0  0  0  0  0  0
   -3.0744   -3.4135    0.5196 H   0  0  0  0  0  0  0  0  0  0  0  0
   -1.5921   -2.8436    1.3499 H   0  0  0  0  0  0  0  0  0  0  0  0
   -1.4917   -3.4423   -0.3233 H   0  0  0  0  0  0  0  0  0  0  0  0
  1  2  1  0  0  0  0
  2  3  1  0  0  0  0
  3  4  4  0  0  0  0
  4  5  2  0  0  0  0
  4  6  1  0  0  0  0
  6  7  1  0  0  0  0
  7  8  1  0  0  0  0
  7  9  1  0  0  0  0
  9 10  2  0  0  0  0
  9 11  4  0  0  0  0
 11 12  1  0  0  0  0
 12 13  1  0  0  0  0
  7 14  1  0  0  0  0
 14 15  1  0  0  0  0
 15 16  2  0  0  0  0
 15 17  1  0  0  0  0
 17 18  1  0  0  0  0
 15 19  1  0  0  0  0
 19 20  1  0  0  0  0
  1 21  1  0  0  0  0
  1 22  1  0  0  0  0
  1 23  1  0  0  0  0
  2 24  1  0  0  0  0
  2 25  1  0  0  0  0
  6 26  1  0  0  0  0
  6 27  1  0  0  0  0
 12 28  1  0  0  0  0
 12 29  1  0  0  0  0
 13 30  1  0  0  0  0
 13 31  1  0  0  0  0
 13 32  1  0  0  0  0
 18 33  1  0  0  0  0
 18 34  1  0  0  0  0
 18 35  1  0  0  0  0
 20 36  1  0  0  0  0
 20 37  1  0  0  0  0
 20 38  1  0  0  0  0
M  END
