 xtb: 6.7.1 (edcfbbe)
          04092505203D

 41 40  0     0  0            999 V2000
    3.6443    0.2616   -2.2708 C   0  0  0  0  0  0  0  0  0  0  0  0
    2.1732    0.5964   -2.1663 C   0  0  0  0  0  0  0  0  0  0  0  0
    1.7601    0.9466   -0.8181 O   0  0  0  0  0  0  0  0  0  0  0  0
    1.9894    0.0977    0.4923 P   0  0  0  0  0  0  0  0  0  0  0  0
    0.8745    0.7493    1.9685 S   0  0  0  0  0  0  0  0  0  0  0  0
    3.5523    0.2355    0.7370 O   0  0  0  0  0  0  0  0  0  0  0  0
    4.1613   -0.0103    2.0152 C   0  0  0  0  0  0  0  0  0  0  0  0
    4.0751   -1.4669    2.4230 C   0  0  0  0  0  0  0  0  0  0  0  0
    1.7220   -1.9387   -0.0593 S   0  0  0  0  0  0  0  0  0  0  0  0
   -0.0786   -1.9904    0.0461 C   0  0  0  0  0  0  0  0  0  0  0  0
   -0.8855   -0.9837   -1.2389 S   0  0  0  0  0  0  0  0  0  0  0  0
   -2.1528    0.2444   -0.0457 P   0  0  0  0  0  0  0  0  0  0  0  0
   -2.5759   -0.4366    1.7369 S   0  0  0  0  0  0  0  0  0  0  0  0
   -3.3608    0.5141   -1.0464 O   0  0  0  0  0  0  0  0  0  0  0  0
   -4.1106   -0.4917   -1.7536 C   0  0  0  0  0  0  0  0  0  0  0  0
   -4.7260   -1.5261   -0.8352 C   0  0  0  0  0  0  0  0  0  0  0  0
   -1.5102    1.6802    0.0337 O   0  0  0  0  0  0  0  0  0  0  0  0
   -1.1575    2.4641   -1.1307 C   0  0  0  0  0  0  0  0  0  0  0  0
   -2.1926    3.5423   -1.3752 C   0  0  0  0  0  0  0  0  0  0  0  0
    3.8647   -0.6530   -1.7246 H   0  0  0  0  0  0  0  0  0  0  0  0
    3.8966    0.1177   -3.3169 H   0  0  0  0  0  0  0  0  0  0  0  0
    4.2459    1.0692   -1.8625 H   0  0  0  0  0  0  0  0  0  0  0  0
    1.5557   -0.2418   -2.5026 H   0  0  0  0  0  0  0  0  0  0  0  0
    1.9227    1.4908   -2.7388 H   0  0  0  0  0  0  0  0  0  0  0  0
    5.1951    0.3086    1.8750 H   0  0  0  0  0  0  0  0  0  0  0  0
    3.6725    0.6262    2.7597 H   0  0  0  0  0  0  0  0  0  0  0  0
    4.4516   -2.1068    1.6291 H   0  0  0  0  0  0  0  0  0  0  0  0
    4.6630   -1.6225    3.3219 H   0  0  0  0  0  0  0  0  0  0  0  0
    3.0400   -1.7342    2.6312 H   0  0  0  0  0  0  0  0  0  0  0  0
   -0.4144   -1.6302    1.0232 H   0  0  0  0  0  0  0  0  0  0  0  0
   -0.3610   -3.0288   -0.1080 H   0  0  0  0  0  0  0  0  0  0  0  0
   -4.8784    0.0833   -2.2744 H   0  0  0  0  0  0  0  0  0  0  0  0
   -3.4449   -0.9658   -2.4802 H   0  0  0  0  0  0  0  0  0  0  0  0
   -5.3459   -2.2000   -1.4176 H   0  0  0  0  0  0  0  0  0  0  0  0
   -3.9474   -2.0996   -0.3349 H   0  0  0  0  0  0  0  0  0  0  0  0
   -5.3335   -1.0437   -0.0732 H   0  0  0  0  0  0  0  0  0  0  0  0
   -0.1807    2.8899   -0.8895 H   0  0  0  0  0  0  0  0  0  0  0  0
   -1.0641    1.7975   -1.9932 H   0  0  0  0  0  0  0  0  0  0  0  0
   -2.2891    4.1690   -0.4928 H   0  0  0  0  0  0  0  0  0  0  0  0
   -1.8795    4.1513   -2.2174 H   0  0  0  0  0  0  0  0  0  0  0  0
   -3.1581    3.0926   -1.5916 H   0  0  0  0  0  0  0  0  0  0  0  0
  1  2  1  0  0  0  0
  2  3  1  0  0  0  0
  3  4  2  0  0  0  0
  4  5  2  0  0  0  0
  4  6  2  0  0  0  0
  6  7  1  0  0  0  0
  7  8  1  0  0  0  0
  4  9  1  0  0  0  0
  9 10  1  0  0  0  0
 10 11  1  0  0  0  0
 11 12  1  0  0  0  0
 12 13  2  0  0  0  0
 12 14  2  0  0  0  0
 14 15  1  0  0  0  0
 15 16  1  0  0  0  0
 12 17  2  0  0  0  0
 17 18  1  0  0  0  0
 18 19  1  0  0  0  0
  1 20  1  0  0  0  0
  1 21  1  0  0  0  0
  1 22  1  0  0  0  0
  2 23  1  0  0  0  0
  2 24  1  0  0  0  0
  7 25  1  0  0  0  0
  7 26  1  0  0  0  0
  8 27  1  0  0  0  0
  8 28  1  0  0  0  0
  8 29  1  0  0  0  0
 10 30  1  0  0  0  0
 10 31  1  0  0  0  0
 15 32  1  0  0  0  0
 15 33  1  0  0  0  0
 16 34  1  0  0  0  0
 16 35  1  0  0  0  0
 16 36  1  0  0  0  0
 18 37  1  0  0  0  0
 18 38  1  0  0  0  0
 19 39  1  0  0  0  0
 19 40  1  0  0  0  0
 19 41  1  0  0  0  0
M  END
