 xtb: 6.7.1 (edcfbbe)
          04092507313D

 38 37  0     0  0            999 V2000
    5.2795   -1.9766   -1.5031 C   0  0  0  0  0  0  0  0  0  0  0  0
    4.5129   -0.6664   -1.4165 C   0  0  0  0  0  0  0  0  0  0  0  0
    3.0917   -0.8988   -1.3962 O   0  0  0  0  0  0  0  0  0  0  0  0
    2.5137   -1.1377   -0.2340 C   0  0  0  0  0  0  0  0  0  0  0  0
    3.0919   -1.1792    0.8270 O   0  0  0  0  0  0  0  0  0  0  0  0
    1.0202   -1.3662   -0.3961 C   0  0  0  0  0  0  0  0  0  0  0  0
    0.3705   -0.1869   -1.1232 C   0  0  0  0  0  0  0  0  0  0  0  0
    0.8347   -0.0575   -2.1046 H   0  0  0  0  0  0  0  0  0  0  0  0
    0.5176    1.0923   -0.3239 C   0  0  0  0  0  0  0  0  0  0  0  0
   -0.4357    1.7330    0.0721 O   0  0  0  0  0  0  0  0  0  0  0  0
    1.7708    1.4022   -0.1284 O   0  0  0  0  0  0  0  0  0  0  0  0
    2.0774    2.5017    0.7580 C   0  0  0  0  0  0  0  0  0  0  0  0
    2.1080    2.0164    2.1977 C   0  0  0  0  0  0  0  0  0  0  0  0
   -1.3965   -0.4660   -1.4493 S   0  0  0  0  0  0  0  0  0  0  0  0
   -2.3220    0.0554    0.4004 P   0  0  0  0  0  0  0  0  0  0  0  0
   -1.3884   -0.2357    2.1005 S   0  0  0  0  0  0  0  0  0  0  0  0
   -3.0636    1.4457    0.2809 O   0  0  0  0  0  0  0  0  0  0  0  0
   -3.9315    1.7697   -0.8220 C   0  0  0  0  0  0  0  0  0  0  0  0
   -3.6114   -0.9048    0.2783 O   0  0  0  0  0  0  0  0  0  0  0  0
   -3.5100   -2.3216    0.4322 C   0  0  0  0  0  0  0  0  0  0  0  0
    5.1050   -2.5712   -0.6093 H   0  0  0  0  0  0  0  0  0  0  0  0
    4.9585   -2.5418   -2.3736 H   0  0  0  0  0  0  0  0  0  0  0  0
    6.3409   -1.7666   -1.5840 H   0  0  0  0  0  0  0  0  0  0  0  0
    4.6757   -0.0509   -2.3012 H   0  0  0  0  0  0  0  0  0  0  0  0
    4.7877   -0.1165   -0.5122 H   0  0  0  0  0  0  0  0  0  0  0  0
    0.5830   -1.5020    0.5958 H   0  0  0  0  0  0  0  0  0  0  0  0
    0.8674   -2.2694   -0.9885 H   0  0  0  0  0  0  0  0  0  0  0  0
    3.0570    2.8478    0.4293 H   0  0  0  0  0  0  0  0  0  0  0  0
    1.3243    3.2822    0.6212 H   0  0  0  0  0  0  0  0  0  0  0  0
    2.7937    1.1778    2.2948 H   0  0  0  0  0  0  0  0  0  0  0  0
    2.4279    2.8242    2.8469 H   0  0  0  0  0  0  0  0  0  0  0  0
    1.1177    1.6846    2.5065 H   0  0  0  0  0  0  0  0  0  0  0  0
   -4.7883    1.0982   -0.8300 H   0  0  0  0  0  0  0  0  0  0  0  0
   -3.3851    1.6925   -1.7621 H   0  0  0  0  0  0  0  0  0  0  0  0
   -4.2421    2.7956   -0.6420 H   0  0  0  0  0  0  0  0  0  0  0  0
   -3.0586   -2.7597   -0.4578 H   0  0  0  0  0  0  0  0  0  0  0  0
   -4.5291   -2.6776    0.5601 H   0  0  0  0  0  0  0  0  0  0  0  0
   -2.9113   -2.5608    1.3130 H   0  0  0  0  0  0  0  0  0  0  0  0
  1  2  1  0  0  0  0
  2  3  1  0  0  0  0
  3  4  1  0  0  0  0
  4  5  2  0  0  0  0
  4  6  1  0  0  0  0
  6  7  1  0  0  0  0
  7  8  1  0  0  0  0
  7  9  1  0  0  0  0
  9 10  2  0  0  0  0
  9 11  4  0  0  0  0
 11 12  1  0  0  0  0
 12 13  1  0  0  0  0
  7 14  1  0  0  0  0
 14 15  1  0  0  0  0
 15 16  2  0  0  0  0
 15 17  2  0  0  0  0
 17 18  1  0  0  0  0
 15 19  1  0  0  0  0
 19 20  1  0  0  0  0
  1 21  1  0  0  0  0
  1 22  1  0  0  0  0
  1 23  1  0  0  0  0
  2 24  1  0  0  0  0
  2 25  1  0  0  0  0
  6 26  1  0  0  0  0
  6 27  1  0  0  0  0
 12 28  1  0  0  0  0
 12 29  1  0  0  0  0
 13 30  1  0  0  0  0
 13 31  1  0  0  0  0
 13 32  1  0  0  0  0
 18 33  1  0  0  0  0
 18 34  1  0  0  0  0
 18 35  1  0  0  0  0
 20 36  1  0  0  0  0
 20 37  1  0  0  0  0
 20 38  1  0  0  0  0
M  END
