 xtb: 6.7.1 (edcfbbe)
          04092505213D

 41 40  0     0  0            999 V2000
    2.8084    1.5539   -2.9380 C   0  0  0  0  0  0  0  0  0  0  0  0
    2.8806    1.4545   -1.4294 C   0  0  0  0  0  0  0  0  0  0  0  0
    2.4760    0.1192   -1.0544 O   0  0  0  0  0  0  0  0  0  0  0  0
    2.1231   -0.2552    0.4409 P   0  0  0  0  0  0  0  0  0  0  0  0
    0.9663    1.0106    1.4089 S   0  0  0  0  0  0  0  0  0  0  0  0
    3.5667   -0.3788    1.0963 O   0  0  0  0  0  0  0  0  0  0  0  0
    3.7689   -0.4092    2.5199 C   0  0  0  0  0  0  0  0  0  0  0  0
    3.1993   -1.6669    3.1431 C   0  0  0  0  0  0  0  0  0  0  0  0
    1.5431   -2.2530    0.1516 S   0  0  0  0  0  0  0  0  0  0  0  0
   -0.0468   -2.0313   -0.6953 C   0  0  0  0  0  0  0  0  0  0  0  0
   -1.3931   -1.5166    0.4212 S   0  0  0  0  0  0  0  0  0  0  0  0
   -1.8999    0.3306   -0.4822 P   0  0  0  0  0  0  0  0  0  0  0  0
   -0.6966    1.1041   -1.8075 S   0  0  0  0  0  0  0  0  0  0  0  0
   -2.2367    1.1602    0.8353 O   0  0  0  0  0  0  0  0  0  0  0  0
   -2.1302    2.5935    0.8944 C   0  0  0  0  0  0  0  0  0  0  0  0
   -3.2158    3.2674    0.0802 C   0  0  0  0  0  0  0  0  0  0  0  0
   -3.3013    0.0603   -1.1906 O   0  0  0  0  0  0  0  0  0  0  0  0
   -4.4257   -0.5164   -0.4859 C   0  0  0  0  0  0  0  0  0  0  0  0
   -4.7019   -1.9157   -0.9996 C   0  0  0  0  0  0  0  0  0  0  0  0
    1.7796    1.4244   -3.2656 H   0  0  0  0  0  0  0  0  0  0  0  0
    3.1613    2.5320   -3.2472 H   0  0  0  0  0  0  0  0  0  0  0  0
    3.4259    0.7833   -3.3895 H   0  0  0  0  0  0  0  0  0  0  0  0
    2.2037    2.1701   -0.9504 H   0  0  0  0  0  0  0  0  0  0  0  0
    3.8963    1.6143   -1.0596 H   0  0  0  0  0  0  0  0  0  0  0  0
    4.8525   -0.3552    2.6314 H   0  0  0  0  0  0  0  0  0  0  0  0
    3.3027    0.4815    2.9534 H   0  0  0  0  0  0  0  0  0  0  0  0
    3.5881   -2.5480    2.6389 H   0  0  0  0  0  0  0  0  0  0  0  0
    3.4666   -1.7019    4.1943 H   0  0  0  0  0  0  0  0  0  0  0  0
    2.1131   -1.6642    3.0545 H   0  0  0  0  0  0  0  0  0  0  0  0
   -0.2970   -3.0101   -1.0953 H   0  0  0  0  0  0  0  0  0  0  0  0
    0.0617   -1.2887   -1.4897 H   0  0  0  0  0  0  0  0  0  0  0  0
   -2.2121    2.8188    1.9586 H   0  0  0  0  0  0  0  0  0  0  0  0
   -1.1352    2.8832    0.5419 H   0  0  0  0  0  0  0  0  0  0  0  0
   -4.1973    2.9624    0.4343 H   0  0  0  0  0  0  0  0  0  0  0  0
   -3.1173    4.3443    0.1728 H   0  0  0  0  0  0  0  0  0  0  0  0
   -3.1150    2.9906   -0.9694 H   0  0  0  0  0  0  0  0  0  0  0  0
   -4.2134   -0.5204    0.5873 H   0  0  0  0  0  0  0  0  0  0  0  0
   -5.2640    0.1518   -0.6918 H   0  0  0  0  0  0  0  0  0  0  0  0
   -3.8798   -2.5816   -0.7504 H   0  0  0  0  0  0  0  0  0  0  0  0
   -5.6121   -2.2880   -0.5404 H   0  0  0  0  0  0  0  0  0  0  0  0
   -4.8259   -1.8944   -2.0787 H   0  0  0  0  0  0  0  0  0  0  0  0
  1  2  1  0  0  0  0
  2  3  1  0  0  0  0
  3  4  2  0  0  0  0
  4  5  2  0  0  0  0
  4  6  2  0  0  0  0
  6  7  1  0  0  0  0
  7  8  1  0  0  0  0
  4  9  1  0  0  0  0
  9 10  1  0  0  0  0
 10 11  1  0  0  0  0
 11 12  1  0  0  0  0
 12 13  2  0  0  0  0
 12 14  1  0  0  0  0
 14 15  1  0  0  0  0
 15 16  1  0  0  0  0
 12 17  1  0  0  0  0
 17 18  1  0  0  0  0
 18 19  1  0  0  0  0
  1 20  1  0  0  0  0
  1 21  1  0  0  0  0
  1 22  1  0  0  0  0
  2 23  1  0  0  0  0
  2 24  1  0  0  0  0
  7 25  1  0  0  0  0
  7 26  1  0  0  0  0
  8 27  1  0  0  0  0
  8 28  1  0  0  0  0
  8 29  1  0  0  0  0
 10 30  1  0  0  0  0
 10 31  1  0  0  0  0
 15 32  1  0  0  0  0
 15 33  1  0  0  0  0
 16 34  1  0  0  0  0
 16 35  1  0  0  0  0
 16 36  1  0  0  0  0
 18 37  1  0  0  0  0
 18 38  1  0  0  0  0
 19 39  1  0  0  0  0
 19 40  1  0  0  0  0
 19 41  1  0  0  0  0
M  END
