 xtb: 6.7.1 (edcfbbe)
          04092505213D

 41 40  0     0  0            999 V2000
    2.9926    2.3595   -1.6376 C   0  0  0  0  0  0  0  0  0  0  0  0
    1.7417    1.6550   -1.1513 C   0  0  0  0  0  0  0  0  0  0  0  0
    2.0675    0.2996   -0.8049 O   0  0  0  0  0  0  0  0  0  0  0  0
    1.9037   -0.3631    0.6300 P   0  0  0  0  0  0  0  0  0  0  0  0
    1.5327    0.9012    2.0835 S   0  0  0  0  0  0  0  0  0  0  0  0
    3.2198   -1.2458    0.7334 O   0  0  0  0  0  0  0  0  0  0  0  0
    4.5432   -0.7574    0.4354 C   0  0  0  0  0  0  0  0  0  0  0  0
    5.0438    0.2142    1.4857 C   0  0  0  0  0  0  0  0  0  0  0  0
    0.6239   -2.0352    0.4980 S   0  0  0  0  0  0  0  0  0  0  0  0
   -0.7122   -1.5428    1.6347 C   0  0  0  0  0  0  0  0  0  0  0  0
   -2.3292   -1.3693    0.8353 S   0  0  0  0  0  0  0  0  0  0  0  0
   -1.8305    0.0332   -0.6961 P   0  0  0  0  0  0  0  0  0  0  0  0
   -0.8644   -0.5725   -2.2872 S   0  0  0  0  0  0  0  0  0  0  0  0
   -1.0541    1.1727    0.0760 O   0  0  0  0  0  0  0  0  0  0  0  0
   -1.6924    2.0071    1.0827 C   0  0  0  0  0  0  0  0  0  0  0  0
   -2.1143    3.3307    0.4815 C   0  0  0  0  0  0  0  0  0  0  0  0
   -3.2337    0.7060   -1.0139 O   0  0  0  0  0  0  0  0  0  0  0  0
   -4.1370    0.1649   -1.9939 C   0  0  0  0  0  0  0  0  0  0  0  0
   -4.6722   -1.1916   -1.5851 C   0  0  0  0  0  0  0  0  0  0  0  0
    2.7291    3.3608   -1.9624 H   0  0  0  0  0  0  0  0  0  0  0  0
    3.7245    2.4259   -0.8357 H   0  0  0  0  0  0  0  0  0  0  0  0
    3.4254    1.8151   -2.4724 H   0  0  0  0  0  0  0  0  0  0  0  0
    0.9812    1.5987   -1.9336 H   0  0  0  0  0  0  0  0  0  0  0  0
    1.3226    2.1546   -0.2718 H   0  0  0  0  0  0  0  0  0  0  0  0
    5.1496   -1.6645    0.4109 H   0  0  0  0  0  0  0  0  0  0  0  0
    4.5304   -0.2969   -0.5559 H   0  0  0  0  0  0  0  0  0  0  0  0
    5.0065   -0.2450    2.4704 H   0  0  0  0  0  0  0  0  0  0  0  0
    6.0675    0.4939    1.2577 H   0  0  0  0  0  0  0  0  0  0  0  0
    4.4249    1.1102    1.5021 H   0  0  0  0  0  0  0  0  0  0  0  0
   -0.4245   -0.6074    2.1236 H   0  0  0  0  0  0  0  0  0  0  0  0
   -0.8365   -2.3395    2.3641 H   0  0  0  0  0  0  0  0  0  0  0  0
   -2.5477    1.4690    1.4982 H   0  0  0  0  0  0  0  0  0  0  0  0
   -0.9283    2.1445    1.8518 H   0  0  0  0  0  0  0  0  0  0  0  0
   -1.2566    3.8324    0.0417 H   0  0  0  0  0  0  0  0  0  0  0  0
   -2.8645    3.1733   -0.2887 H   0  0  0  0  0  0  0  0  0  0  0  0
   -2.5295    3.9549    1.2665 H   0  0  0  0  0  0  0  0  0  0  0  0
   -4.9308    0.9103   -2.0566 H   0  0  0  0  0  0  0  0  0  0  0  0
   -3.6088    0.0990   -2.9502 H   0  0  0  0  0  0  0  0  0  0  0  0
   -5.4298   -1.5088   -2.2945 H   0  0  0  0  0  0  0  0  0  0  0  0
   -3.8645   -1.9229   -1.5816 H   0  0  0  0  0  0  0  0  0  0  0  0
   -5.1045   -1.1451   -0.5888 H   0  0  0  0  0  0  0  0  0  0  0  0
  1  2  1  0  0  0  0
  2  3  1  0  0  0  0
  3  4  2  0  0  0  0
  4  5  2  0  0  0  0
  4  6  2  0  0  0  0
  6  7  1  0  0  0  0
  7  8  1  0  0  0  0
  4  9  1  0  0  0  0
  9 10  1  0  0  0  0
 10 11  1  0  0  0  0
 11 12  1  0  0  0  0
 12 13  2  0  0  0  0
 12 14  2  0  0  0  0
 14 15  1  0  0  0  0
 15 16  1  0  0  0  0
 12 17  2  0  0  0  0
 17 18  1  0  0  0  0
 18 19  1  0  0  0  0
  1 20  1  0  0  0  0
  1 21  1  0  0  0  0
  1 22  1  0  0  0  0
  2 23  1  0  0  0  0
  2 24  1  0  0  0  0
  7 25  1  0  0  0  0
  7 26  1  0  0  0  0
  8 27  1  0  0  0  0
  8 28  1  0  0  0  0
  8 29  1  0  0  0  0
 10 30  1  0  0  0  0
 10 31  1  0  0  0  0
 15 32  1  0  0  0  0
 15 33  1  0  0  0  0
 16 34  1  0  0  0  0
 16 35  1  0  0  0  0
 16 36  1  0  0  0  0
 18 37  1  0  0  0  0
 18 38  1  0  0  0  0
 19 39  1  0  0  0  0
 19 40  1  0  0  0  0
 19 41  1  0  0  0  0
M  END
