 xtb: 6.7.1 (edcfbbe)
          04092505203D

 41 40  0     0  0            999 V2000
    2.3902   -0.8097    3.4263 C   0  0  0  0  0  0  0  0  0  0  0  0
    1.2061   -0.8968    2.4861 C   0  0  0  0  0  0  0  0  0  0  0  0
    1.3131    0.0920    1.4479 O   0  0  0  0  0  0  0  0  0  0  0  0
    2.1613   -0.1128    0.1262 P   0  0  0  0  0  0  0  0  0  0  0  0
    2.8035   -1.9442   -0.1710 S   0  0  0  0  0  0  0  0  0  0  0  0
    3.2382    1.0298    0.3484 O   0  0  0  0  0  0  0  0  0  0  0  0
    4.0148    1.6666   -0.6830 C   0  0  0  0  0  0  0  0  0  0  0  0
    4.7451    0.6773   -1.5676 C   0  0  0  0  0  0  0  0  0  0  0  0
    0.9112    0.7031   -1.3842 S   0  0  0  0  0  0  0  0  0  0  0  0
    0.0455   -0.8348   -1.7935 C   0  0  0  0  0  0  0  0  0  0  0  0
   -0.8689   -1.5334   -0.3946 S   0  0  0  0  0  0  0  0  0  0  0  0
   -2.1702    0.1207   -0.0995 P   0  0  0  0  0  0  0  0  0  0  0  0
   -2.7542    1.0639   -1.7193 S   0  0  0  0  0  0  0  0  0  0  0  0
   -1.4014    1.0166    0.9557 O   0  0  0  0  0  0  0  0  0  0  0  0
   -1.2701    2.4442    0.8485 C   0  0  0  0  0  0  0  0  0  0  0  0
   -2.4719    3.1332    1.4606 C   0  0  0  0  0  0  0  0  0  0  0  0
   -3.2814   -0.4744    0.8618 O   0  0  0  0  0  0  0  0  0  0  0  0
   -4.0165   -1.6928    0.6439 C   0  0  0  0  0  0  0  0  0  0  0  0
   -4.6868   -1.7420   -0.7137 C   0  0  0  0  0  0  0  0  0  0  0  0
    3.3051   -1.0368    2.8805 H   0  0  0  0  0  0  0  0  0  0  0  0
    2.4686    0.1918    3.8402 H   0  0  0  0  0  0  0  0  0  0  0  0
    2.2677   -1.5280    4.2306 H   0  0  0  0  0  0  0  0  0  0  0  0
    0.2642   -0.6641    2.9861 H   0  0  0  0  0  0  0  0  0  0  0  0
    1.1441   -1.8906    2.0291 H   0  0  0  0  0  0  0  0  0  0  0  0
    3.3439    2.2948   -1.2761 H   0  0  0  0  0  0  0  0  0  0  0  0
    4.7127    2.2945   -0.1259 H   0  0  0  0  0  0  0  0  0  0  0  0
    5.3837    1.2166   -2.2599 H   0  0  0  0  0  0  0  0  0  0  0  0
    5.3527    0.0060   -0.9653 H   0  0  0  0  0  0  0  0  0  0  0  0
    4.0315    0.0813   -2.1349 H   0  0  0  0  0  0  0  0  0  0  0  0
    0.7663   -1.5936   -2.0966 H   0  0  0  0  0  0  0  0  0  0  0  0
   -0.6454   -0.5905   -2.5998 H   0  0  0  0  0  0  0  0  0  0  0  0
   -0.3465    2.6741    1.3830 H   0  0  0  0  0  0  0  0  0  0  0  0
   -1.1611    2.7171   -0.2070 H   0  0  0  0  0  0  0  0  0  0  0  0
   -2.5990    2.8201    2.4931 H   0  0  0  0  0  0  0  0  0  0  0  0
   -2.3314    4.2086    1.4206 H   0  0  0  0  0  0  0  0  0  0  0  0
   -3.3676    2.8688    0.9002 H   0  0  0  0  0  0  0  0  0  0  0  0
   -3.3279   -2.5338    0.7666 H   0  0  0  0  0  0  0  0  0  0  0  0
   -4.7507   -1.6956    1.4516 H   0  0  0  0  0  0  0  0  0  0  0  0
   -5.3114   -0.8640   -0.8604 H   0  0  0  0  0  0  0  0  0  0  0  0
   -3.9369   -1.7677   -1.5032 H   0  0  0  0  0  0  0  0  0  0  0  0
   -5.3001   -2.6349   -0.7803 H   0  0  0  0  0  0  0  0  0  0  0  0
  1  2  1  0  0  0  0
  2  3  1  0  0  0  0
  3  4  2  0  0  0  0
  4  5  2  0  0  0  0
  4  6  2  0  0  0  0
  6  7  1  0  0  0  0
  7  8  1  0  0  0  0
  4  9  1  0  0  0  0
  9 10  1  0  0  0  0
 10 11  1  0  0  0  0
 11 12  1  0  0  0  0
 12 13  2  0  0  0  0
 12 14  2  0  0  0  0
 14 15  1  0  0  0  0
 15 16  1  0  0  0  0
 12 17  2  0  0  0  0
 17 18  1  0  0  0  0
 18 19  1  0  0  0  0
  1 20  1  0  0  0  0
  1 21  1  0  0  0  0
  1 22  1  0  0  0  0
  2 23  1  0  0  0  0
  2 24  1  0  0  0  0
  7 25  1  0  0  0  0
  7 26  1  0  0  0  0
  8 27  1  0  0  0  0
  8 28  1  0  0  0  0
  8 29  1  0  0  0  0
 10 30  1  0  0  0  0
 10 31  1  0  0  0  0
 15 32  1  0  0  0  0
 15 33  1  0  0  0  0
 16 34  1  0  0  0  0
 16 35  1  0  0  0  0
 16 36  1  0  0  0  0
 18 37  1  0  0  0  0
 18 38  1  0  0  0  0
 19 39  1  0  0  0  0
 19 40  1  0  0  0  0
 19 41  1  0  0  0  0
M  END
