 xtb: 6.7.1 (edcfbbe)
          04092505203D

 41 40  0     0  0            999 V2000
    2.9668    0.6631   -2.4290 C   0  0  0  0  0  0  0  0  0  0  0  0
    2.1715   -0.6171   -2.2869 C   0  0  0  0  0  0  0  0  0  0  0  0
    1.3512   -0.6265   -1.0985 O   0  0  0  0  0  0  0  0  0  0  0  0
    1.8902   -0.4462    0.3749 P   0  0  0  0  0  0  0  0  0  0  0  0
    2.4435    1.3152    1.0519 S   0  0  0  0  0  0  0  0  0  0  0  0
    3.0516   -1.5328    0.4017 O   0  0  0  0  0  0  0  0  0  0  0  0
    3.9811   -1.6442    1.4973 C   0  0  0  0  0  0  0  0  0  0  0  0
    5.2938   -2.1730    0.9546 C   0  0  0  0  0  0  0  0  0  0  0  0
    0.3512   -1.3537    1.4906 S   0  0  0  0  0  0  0  0  0  0  0  0
   -0.5009    0.1166    2.1525 C   0  0  0  0  0  0  0  0  0  0  0  0
   -2.2204    0.2261    1.6236 S   0  0  0  0  0  0  0  0  0  0  0  0
   -1.8837    0.6090   -0.4458 P   0  0  0  0  0  0  0  0  0  0  0  0
   -0.5287    1.9511   -0.8803 S   0  0  0  0  0  0  0  0  0  0  0  0
   -3.3591    0.8532   -0.9820 O   0  0  0  0  0  0  0  0  0  0  0  0
   -4.3231    1.7440   -0.3886 C   0  0  0  0  0  0  0  0  0  0  0  0
   -3.7971    3.1534   -0.2189 C   0  0  0  0  0  0  0  0  0  0  0  0
   -1.5147   -0.7669   -1.1190 O   0  0  0  0  0  0  0  0  0  0  0  0
   -2.3270   -1.9625   -1.0023 C   0  0  0  0  0  0  0  0  0  0  0  0
   -3.1699   -2.1560   -2.2458 C   0  0  0  0  0  0  0  0  0  0  0  0
    3.4861    0.6654   -3.3821 H   0  0  0  0  0  0  0  0  0  0  0  0
    2.3012    1.5235   -2.3775 H   0  0  0  0  0  0  0  0  0  0  0  0
    3.6956    0.7455   -1.6233 H   0  0  0  0  0  0  0  0  0  0  0  0
    2.8282   -1.4894   -2.2523 H   0  0  0  0  0  0  0  0  0  0  0  0
    1.4434   -0.7244   -3.0929 H   0  0  0  0  0  0  0  0  0  0  0  0
    4.1046   -0.6553    1.9522 H   0  0  0  0  0  0  0  0  0  0  0  0
    3.5480   -2.3276    2.2315 H   0  0  0  0  0  0  0  0  0  0  0  0
    5.7125   -1.4740    0.2356 H   0  0  0  0  0  0  0  0  0  0  0  0
    5.9911   -2.2990    1.7761 H   0  0  0  0  0  0  0  0  0  0  0  0
    5.1355   -3.1303    0.4663 H   0  0  0  0  0  0  0  0  0  0  0  0
    0.0494    1.0080    1.8360 H   0  0  0  0  0  0  0  0  0  0  0  0
   -0.5236    0.0345    3.2361 H   0  0  0  0  0  0  0  0  0  0  0  0
   -5.1622    1.7144   -1.0859 H   0  0  0  0  0  0  0  0  0  0  0  0
   -4.6237    1.3251    0.5755 H   0  0  0  0  0  0  0  0  0  0  0  0
   -4.5906    3.7922    0.1551 H   0  0  0  0  0  0  0  0  0  0  0  0
   -2.9695    3.1641    0.4893 H   0  0  0  0  0  0  0  0  0  0  0  0
   -3.4374    3.5422   -1.1688 H   0  0  0  0  0  0  0  0  0  0  0  0
   -1.6057   -2.7723   -0.8739 H   0  0  0  0  0  0  0  0  0  0  0  0
   -2.9512   -1.8841   -0.1075 H   0  0  0  0  0  0  0  0  0  0  0  0
   -3.7318   -3.0799   -2.1518 H   0  0  0  0  0  0  0  0  0  0  0  0
   -3.8597   -1.3247   -2.3651 H   0  0  0  0  0  0  0  0  0  0  0  0
   -2.5333   -2.2100   -3.1245 H   0  0  0  0  0  0  0  0  0  0  0  0
  1  2  1  0  0  0  0
  2  3  1  0  0  0  0
  3  4  2  0  0  0  0
  4  5  2  0  0  0  0
  4  6  2  0  0  0  0
  6  7  1  0  0  0  0
  7  8  1  0  0  0  0
  4  9  1  0  0  0  0
  9 10  1  0  0  0  0
 10 11  1  0  0  0  0
 11 12  1  0  0  0  0
 12 13  2  0  0  0  0
 12 14  2  0  0  0  0
 14 15  1  0  0  0  0
 15 16  1  0  0  0  0
 12 17  2  0  0  0  0
 17 18  1  0  0  0  0
 18 19  1  0  0  0  0
  1 20  1  0  0  0  0
  1 21  1  0  0  0  0
  1 22  1  0  0  0  0
  2 23  1  0  0  0  0
  2 24  1  0  0  0  0
  7 25  1  0  0  0  0
  7 26  1  0  0  0  0
  8 27  1  0  0  0  0
  8 28  1  0  0  0  0
  8 29  1  0  0  0  0
 10 30  1  0  0  0  0
 10 31  1  0  0  0  0
 15 32  1  0  0  0  0
 15 33  1  0  0  0  0
 16 34  1  0  0  0  0
 16 35  1  0  0  0  0
 16 36  1  0  0  0  0
 18 37  1  0  0  0  0
 18 38  1  0  0  0  0
 19 39  1  0  0  0  0
 19 40  1  0  0  0  0
 19 41  1  0  0  0  0
M  END
