 xtb: 6.7.1 (edcfbbe)
          04092505203D

 41 40  0     0  0            999 V2000
    4.1135   -1.1186   -2.4381 C   0  0  0  0  0  0  0  0  0  0  0  0
    4.3521   -1.4322   -0.9752 C   0  0  0  0  0  0  0  0  0  0  0  0
    3.1235   -1.5320   -0.2337 O   0  0  0  0  0  0  0  0  0  0  0  0
    2.1960   -0.2751    0.0574 P   0  0  0  0  0  0  0  0  0  0  0  0
    3.1487    1.3938    0.4575 S   0  0  0  0  0  0  0  0  0  0  0  0
    1.2528   -0.8447    1.1943 O   0  0  0  0  0  0  0  0  0  0  0  0
    1.4834   -0.5841    2.5923 C   0  0  0  0  0  0  0  0  0  0  0  0
    2.6919   -1.3379    3.1062 C   0  0  0  0  0  0  0  0  0  0  0  0
    0.8388   -0.2450   -1.5614 S   0  0  0  0  0  0  0  0  0  0  0  0
    0.2194    1.4373   -1.2800 C   0  0  0  0  0  0  0  0  0  0  0  0
   -0.6232    1.6435    0.3137 S   0  0  0  0  0  0  0  0  0  0  0  0
   -2.1950    0.2846   -0.0686 P   0  0  0  0  0  0  0  0  0  0  0  0
   -2.9047    0.2292   -1.8979 S   0  0  0  0  0  0  0  0  0  0  0  0
   -3.2651    0.5957    1.0639 O   0  0  0  0  0  0  0  0  0  0  0  0
   -4.3304    1.5454    0.8823 C   0  0  0  0  0  0  0  0  0  0  0  0
   -3.8208    2.9709    0.8204 C   0  0  0  0  0  0  0  0  0  0  0  0
   -1.5437   -1.0494    0.4817 O   0  0  0  0  0  0  0  0  0  0  0  0
   -1.9364   -2.3529    0.0106 C   0  0  0  0  0  0  0  0  0  0  0  0
   -3.3178   -2.7292    0.5032 C   0  0  0  0  0  0  0  0  0  0  0  0
    5.0554   -1.1702   -2.9748 H   0  0  0  0  0  0  0  0  0  0  0  0
    3.4120   -1.8290   -2.8683 H   0  0  0  0  0  0  0  0  0  0  0  0
    3.7022   -0.1153   -2.5424 H   0  0  0  0  0  0  0  0  0  0  0  0
    4.9719   -0.6571   -0.5130 H   0  0  0  0  0  0  0  0  0  0  0  0
    4.8175   -2.4098   -0.8427 H   0  0  0  0  0  0  0  0  0  0  0  0
    1.6102    0.4952    2.7282 H   0  0  0  0  0  0  0  0  0  0  0  0
    0.5603   -0.9086    3.0749 H   0  0  0  0  0  0  0  0  0  0  0  0
    3.5919   -0.9664    2.6173 H   0  0  0  0  0  0  0  0  0  0  0  0
    2.7833   -1.1860    4.1771 H   0  0  0  0  0  0  0  0  0  0  0  0
    2.5906   -2.3994    2.8960 H   0  0  0  0  0  0  0  0  0  0  0  0
   -0.4760    1.6463   -2.0922 H   0  0  0  0  0  0  0  0  0  0  0  0
    1.0528    2.1390   -1.2775 H   0  0  0  0  0  0  0  0  0  0  0  0
   -4.8678    1.2895   -0.0365 H   0  0  0  0  0  0  0  0  0  0  0  0
   -4.9744    1.3845    1.7479 H   0  0  0  0  0  0  0  0  0  0  0  0
   -3.2314    3.1179   -0.0837 H   0  0  0  0  0  0  0  0  0  0  0  0
   -4.6644    3.6536    0.8056 H   0  0  0  0  0  0  0  0  0  0  0  0
   -3.1952    3.1869    1.6829 H   0  0  0  0  0  0  0  0  0  0  0  0
   -1.8994   -2.3525   -1.0841 H   0  0  0  0  0  0  0  0  0  0  0  0
   -1.1647   -3.0167    0.4034 H   0  0  0  0  0  0  0  0  0  0  0  0
   -4.0586   -2.0600    0.0668 H   0  0  0  0  0  0  0  0  0  0  0  0
   -3.5426   -3.7481    0.2041 H   0  0  0  0  0  0  0  0  0  0  0  0
   -3.3661   -2.6482    1.5859 H   0  0  0  0  0  0  0  0  0  0  0  0
  1  2  1  0  0  0  0
  2  3  1  0  0  0  0
  3  4  2  0  0  0  0
  4  5  2  0  0  0  0
  4  6  2  0  0  0  0
  6  7  1  0  0  0  0
  7  8  1  0  0  0  0
  4  9  1  0  0  0  0
  9 10  1  0  0  0  0
 10 11  1  0  0  0  0
 11 12  1  0  0  0  0
 12 13  2  0  0  0  0
 12 14  2  0  0  0  0
 14 15  1  0  0  0  0
 15 16  1  0  0  0  0
 12 17  2  0  0  0  0
 17 18  1  0  0  0  0
 18 19  1  0  0  0  0
  1 20  1  0  0  0  0
  1 21  1  0  0  0  0
  1 22  1  0  0  0  0
  2 23  1  0  0  0  0
  2 24  1  0  0  0  0
  7 25  1  0  0  0  0
  7 26  1  0  0  0  0
  8 27  1  0  0  0  0
  8 28  1  0  0  0  0
  8 29  1  0  0  0  0
 10 30  1  0  0  0  0
 10 31  1  0  0  0  0
 15 32  1  0  0  0  0
 15 33  1  0  0  0  0
 16 34  1  0  0  0  0
 16 35  1  0  0  0  0
 16 36  1  0  0  0  0
 18 37  1  0  0  0  0
 18 38  1  0  0  0  0
 19 39  1  0  0  0  0
 19 40  1  0  0  0  0
 19 41  1  0  0  0  0
M  END
