 xtb: 6.7.1 (edcfbbe)
          04092505213D

 41 40  0     0  0            999 V2000
    3.4500    2.3011    0.2572 C   0  0  0  0  0  0  0  0  0  0  0  0
    2.2712    1.8863   -0.5967 C   0  0  0  0  0  0  0  0  0  0  0  0
    2.2485    0.4624   -0.8226 O   0  0  0  0  0  0  0  0  0  0  0  0
    1.9922   -0.5814    0.3356 P   0  0  0  0  0  0  0  0  0  0  0  0
    0.7549   -0.0381    1.7634 S   0  0  0  0  0  0  0  0  0  0  0  0
    3.4673   -0.8930    0.8324 O   0  0  0  0  0  0  0  0  0  0  0  0
    3.7215   -1.7713    1.9473 C   0  0  0  0  0  0  0  0  0  0  0  0
    5.1465   -1.5390    2.4073 C   0  0  0  0  0  0  0  0  0  0  0  0
    1.5107   -2.3062   -0.7693 S   0  0  0  0  0  0  0  0  0  0  0  0
   -0.2741   -2.0615   -0.9541 C   0  0  0  0  0  0  0  0  0  0  0  0
   -0.6961   -0.5665   -1.9065 S   0  0  0  0  0  0  0  0  0  0  0  0
   -1.9646    0.4290   -0.5377 P   0  0  0  0  0  0  0  0  0  0  0  0
   -2.6900   -0.7116    0.8894 S   0  0  0  0  0  0  0  0  0  0  0  0
   -3.0696    1.0870   -1.4756 O   0  0  0  0  0  0  0  0  0  0  0  0
   -4.2272    0.3555   -1.9270 C   0  0  0  0  0  0  0  0  0  0  0  0
   -5.4441    0.7368   -1.1066 C   0  0  0  0  0  0  0  0  0  0  0  0
   -1.0936    1.7066   -0.1958 O   0  0  0  0  0  0  0  0  0  0  0  0
   -1.6462    2.9400    0.3209 C   0  0  0  0  0  0  0  0  0  0  0  0
   -2.2040    2.7708    1.7186 C   0  0  0  0  0  0  0  0  0  0  0  0
    3.4862    3.3841    0.3219 H   0  0  0  0  0  0  0  0  0  0  0  0
    3.3409    1.8879    1.2594 H   0  0  0  0  0  0  0  0  0  0  0  0
    4.3748    1.9307   -0.1770 H   0  0  0  0  0  0  0  0  0  0  0  0
    2.3239    2.3057   -1.6025 H   0  0  0  0  0  0  0  0  0  0  0  0
    1.3267    2.1726   -0.1242 H   0  0  0  0  0  0  0  0  0  0  0  0
    2.9994   -1.5464    2.7398 H   0  0  0  0  0  0  0  0  0  0  0  0
    3.5730   -2.8010    1.6111 H   0  0  0  0  0  0  0  0  0  0  0  0
    5.3699   -2.2145    3.2265 H   0  0  0  0  0  0  0  0  0  0  0  0
    5.8332   -1.7266    1.5872 H   0  0  0  0  0  0  0  0  0  0  0  0
    5.2706   -0.5138    2.7439 H   0  0  0  0  0  0  0  0  0  0  0  0
   -0.7512   -1.9918    0.0287 H   0  0  0  0  0  0  0  0  0  0  0  0
   -0.6325   -2.9299   -1.5009 H   0  0  0  0  0  0  0  0  0  0  0  0
   -4.3456    0.6338   -2.9755 H   0  0  0  0  0  0  0  0  0  0  0  0
   -4.0301   -0.7172   -1.8511 H   0  0  0  0  0  0  0  0  0  0  0  0
   -6.3161    0.2277   -1.5038 H   0  0  0  0  0  0  0  0  0  0  0  0
   -5.3020    0.4381   -0.0701 H   0  0  0  0  0  0  0  0  0  0  0  0
   -5.6041    1.8105   -1.1476 H   0  0  0  0  0  0  0  0  0  0  0  0
   -0.7952    3.6237    0.3131 H   0  0  0  0  0  0  0  0  0  0  0  0
   -2.4121    3.2911   -0.3737 H   0  0  0  0  0  0  0  0  0  0  0  0
   -2.4896    3.7397    2.1153 H   0  0  0  0  0  0  0  0  0  0  0  0
   -3.0765    2.1197    1.7018 H   0  0  0  0  0  0  0  0  0  0  0  0
   -1.4547    2.3199    2.3669 H   0  0  0  0  0  0  0  0  0  0  0  0
  1  2  1  0  0  0  0
  2  3  1  0  0  0  0
  3  4  2  0  0  0  0
  4  5  2  0  0  0  0
  4  6  2  0  0  0  0
  6  7  1  0  0  0  0
  7  8  1  0  0  0  0
  4  9  1  0  0  0  0
  9 10  1  0  0  0  0
 10 11  1  0  0  0  0
 11 12  1  0  0  0  0
 12 13  2  0  0  0  0
 12 14  2  0  0  0  0
 14 15  1  0  0  0  0
 15 16  1  0  0  0  0
 12 17  2  0  0  0  0
 17 18  1  0  0  0  0
 18 19  1  0  0  0  0
  1 20  1  0  0  0  0
  1 21  1  0  0  0  0
  1 22  1  0  0  0  0
  2 23  1  0  0  0  0
  2 24  1  0  0  0  0
  7 25  1  0  0  0  0
  7 26  1  0  0  0  0
  8 27  1  0  0  0  0
  8 28  1  0  0  0  0
  8 29  1  0  0  0  0
 10 30  1  0  0  0  0
 10 31  1  0  0  0  0
 15 32  1  0  0  0  0
 15 33  1  0  0  0  0
 16 34  1  0  0  0  0
 16 35  1  0  0  0  0
 16 36  1  0  0  0  0
 18 37  1  0  0  0  0
 18 38  1  0  0  0  0
 19 39  1  0  0  0  0
 19 40  1  0  0  0  0
 19 41  1  0  0  0  0
M  END
