 xtb: 6.7.1 (edcfbbe)
          04032519393D

  8  7  0     0  0            999 V2000
    0.6975   -0.5479   -0.2068 C   0  0  0  0  0  0  0  0  0  0  0  0
   -0.5736    0.1581    0.3099 C   0  0  0  0  0  0  0  0  0  0  0  0
   -0.4899    0.2870    1.6482 F   0  0  0  0  0  0  0  0  0  0  0  0
   -1.9973   -0.8275   -0.0759 Cl  0  0  0  0  0  0  0  0  0  0  0  0
   -0.6940    1.7625   -0.4161 Cl  0  0  0  0  0  0  0  0  0  0  0  0
    0.7843   -1.7836    0.3054 F   0  0  0  0  0  0  0  0  0  0  0  0
    0.6406   -0.6905   -1.5352 F   0  0  0  0  0  0  0  0  0  0  0  0
    2.1483    0.3690    0.2328 Cl  0  0  0  0  0  0  0  0  0  0  0  0
  1  2  1  0  0  0  0
  2  3  1  0  0  0  0
  2  4  1  0  0  0  0
  2  5  1  0  0  0  0
  1  6  1  0  0  0  0
  1  7  1  0  0  0  0
  1  8  1  0  0  0  0
M  END
