 xtb: 6.7.1 (edcfbbe)
          04092505213D

 41 40  0     0  0            999 V2000
    5.3062   -1.6575   -1.1798 C   0  0  0  0  0  0  0  0  0  0  0  0
    3.9998   -1.1328   -1.7418 C   0  0  0  0  0  0  0  0  0  0  0  0
    3.1153   -0.8643   -0.6394 O   0  0  0  0  0  0  0  0  0  0  0  0
    1.9310    0.2089   -0.7240 P   0  0  0  0  0  0  0  0  0  0  0  0
    2.4558    1.8629   -1.6308 S   0  0  0  0  0  0  0  0  0  0  0  0
    1.5190    0.2718    0.7986 O   0  0  0  0  0  0  0  0  0  0  0  0
    2.2520    1.0928    1.7394 C   0  0  0  0  0  0  0  0  0  0  0  0
    1.3704    1.2988    2.9525 C   0  0  0  0  0  0  0  0  0  0  0  0
    0.3287   -0.8751   -1.5576 S   0  0  0  0  0  0  0  0  0  0  0  0
    0.0199   -2.0218   -0.1858 C   0  0  0  0  0  0  0  0  0  0  0  0
   -1.0099   -1.3378    1.1612 S   0  0  0  0  0  0  0  0  0  0  0  0
   -1.9962    0.3059    0.2304 P   0  0  0  0  0  0  0  0  0  0  0  0
   -0.9980    1.9758   -0.0548 S   0  0  0  0  0  0  0  0  0  0  0  0
   -3.2538    0.4977    1.1851 O   0  0  0  0  0  0  0  0  0  0  0  0
   -3.2115    1.2743    2.3949 C   0  0  0  0  0  0  0  0  0  0  0  0
   -2.6745    0.4662    3.5588 C   0  0  0  0  0  0  0  0  0  0  0  0
   -2.6627   -0.2144   -1.1001 O   0  0  0  0  0  0  0  0  0  0  0  0
   -3.8376   -1.0627   -1.1887 C   0  0  0  0  0  0  0  0  0  0  0  0
   -3.4784   -2.5332   -1.1201 C   0  0  0  0  0  0  0  0  0  0  0  0
    5.7732   -0.9029   -0.5532 H   0  0  0  0  0  0  0  0  0  0  0  0
    5.1242   -2.5481   -0.5856 H   0  0  0  0  0  0  0  0  0  0  0  0
    5.9723   -1.9015   -2.0007 H   0  0  0  0  0  0  0  0  0  0  0  0
    3.5184   -1.8699   -2.3902 H   0  0  0  0  0  0  0  0  0  0  0  0
    4.1474   -0.2041   -2.3037 H   0  0  0  0  0  0  0  0  0  0  0  0
    3.1750    0.5658    1.9919 H   0  0  0  0  0  0  0  0  0  0  0  0
    2.4970    2.0426    1.2523 H   0  0  0  0  0  0  0  0  0  0  0  0
    0.4623    1.8206    2.6595 H   0  0  0  0  0  0  0  0  0  0  0  0
    1.1071    0.3385    3.3874 H   0  0  0  0  0  0  0  0  0  0  0  0
    1.9050    1.8959    3.6836 H   0  0  0  0  0  0  0  0  0  0  0  0
    0.9662   -2.3212    0.2604 H   0  0  0  0  0  0  0  0  0  0  0  0
   -0.4988   -2.8735   -0.6196 H   0  0  0  0  0  0  0  0  0  0  0  0
   -2.6025    2.1666    2.2133 H   0  0  0  0  0  0  0  0  0  0  0  0
   -4.2496    1.5686    2.5578 H   0  0  0  0  0  0  0  0  0  0  0  0
   -3.2564   -0.4424    3.6841 H   0  0  0  0  0  0  0  0  0  0  0  0
   -1.6362    0.1938    3.3820 H   0  0  0  0  0  0  0  0  0  0  0  0
   -2.7352    1.0624    4.4635 H   0  0  0  0  0  0  0  0  0  0  0  0
   -4.5321   -0.7827   -0.3957 H   0  0  0  0  0  0  0  0  0  0  0  0
   -4.2590   -0.8026   -2.1611 H   0  0  0  0  0  0  0  0  0  0  0  0
   -3.1095   -2.7934   -0.1311 H   0  0  0  0  0  0  0  0  0  0  0  0
   -4.3691   -3.1185   -1.3272 H   0  0  0  0  0  0  0  0  0  0  0  0
   -2.7215   -2.7644   -1.8656 H   0  0  0  0  0  0  0  0  0  0  0  0
  1  2  1  0  0  0  0
  2  3  1  0  0  0  0
  3  4  2  0  0  0  0
  4  5  2  0  0  0  0
  4  6  2  0  0  0  0
  6  7  1  0  0  0  0
  7  8  1  0  0  0  0
  4  9  1  0  0  0  0
  9 10  1  0  0  0  0
 10 11  1  0  0  0  0
 11 12  1  0  0  0  0
 12 13  2  0  0  0  0
 12 14  2  0  0  0  0
 14 15  1  0  0  0  0
 15 16  1  0  0  0  0
 12 17  2  0  0  0  0
 17 18  1  0  0  0  0
 18 19  1  0  0  0  0
  1 20  1  0  0  0  0
  1 21  1  0  0  0  0
  1 22  1  0  0  0  0
  2 23  1  0  0  0  0
  2 24  1  0  0  0  0
  7 25  1  0  0  0  0
  7 26  1  0  0  0  0
  8 27  1  0  0  0  0
  8 28  1  0  0  0  0
  8 29  1  0  0  0  0
 10 30  1  0  0  0  0
 10 31  1  0  0  0  0
 15 32  1  0  0  0  0
 15 33  1  0  0  0  0
 16 34  1  0  0  0  0
 16 35  1  0  0  0  0
 16 36  1  0  0  0  0
 18 37  1  0  0  0  0
 18 38  1  0  0  0  0
 19 39  1  0  0  0  0
 19 40  1  0  0  0  0
 19 41  1  0  0  0  0
M  END
