 xtb: 6.7.1 (edcfbbe)
          04092505203D

 41 40  0     0  0            999 V2000
    4.1574    0.4905   -2.3001 C   0  0  0  0  0  0  0  0  0  0  0  0
    4.5012   -0.2572   -1.0292 C   0  0  0  0  0  0  0  0  0  0  0  0
    3.6898    0.1432    0.0912 O   0  0  0  0  0  0  0  0  0  0  0  0
    2.1019    0.1609    0.1153 P   0  0  0  0  0  0  0  0  0  0  0  0
    1.1779    1.6597   -0.7419 S   0  0  0  0  0  0  0  0  0  0  0  0
    1.7986    0.1772    1.6623 O   0  0  0  0  0  0  0  0  0  0  0  0
    2.3469   -0.7861    2.5962 C   0  0  0  0  0  0  0  0  0  0  0  0
    3.5217   -0.1890    3.3430 C   0  0  0  0  0  0  0  0  0  0  0  0
    1.6059   -1.7897   -0.5898 S   0  0  0  0  0  0  0  0  0  0  0  0
   -0.1376   -1.4993   -0.9184 C   0  0  0  0  0  0  0  0  0  0  0  0
   -1.0604   -1.0974    0.6114 S   0  0  0  0  0  0  0  0  0  0  0  0
   -2.5213    0.2356   -0.1708 P   0  0  0  0  0  0  0  0  0  0  0  0
   -2.2602    0.8272   -2.0253 S   0  0  0  0  0  0  0  0  0  0  0  0
   -2.7001    1.3569    0.9302 O   0  0  0  0  0  0  0  0  0  0  0  0
   -1.8354    2.4935    1.1011 C   0  0  0  0  0  0  0  0  0  0  0  0
   -0.9411    2.3091    2.3112 C   0  0  0  0  0  0  0  0  0  0  0  0
   -3.9091   -0.4638    0.1338 O   0  0  0  0  0  0  0  0  0  0  0  0
   -4.5908   -1.2881   -0.8264 C   0  0  0  0  0  0  0  0  0  0  0  0
   -3.8332   -2.5665   -1.1258 C   0  0  0  0  0  0  0  0  0  0  0  0
    3.1441    0.2477   -2.6181 H   0  0  0  0  0  0  0  0  0  0  0  0
    4.2159    1.5644   -2.1376 H   0  0  0  0  0  0  0  0  0  0  0  0
    4.8507    0.2073   -3.0855 H   0  0  0  0  0  0  0  0  0  0  0  0
    5.5186   -0.0363   -0.7015 H   0  0  0  0  0  0  0  0  0  0  0  0
    4.3796   -1.3347   -1.1694 H   0  0  0  0  0  0  0  0  0  0  0  0
    1.5194   -1.0194    3.2691 H   0  0  0  0  0  0  0  0  0  0  0  0
    2.6386   -1.6867    2.0490 H   0  0  0  0  0  0  0  0  0  0  0  0
    4.3218    0.0569    2.6499 H   0  0  0  0  0  0  0  0  0  0  0  0
    3.2147    0.7174    3.8574 H   0  0  0  0  0  0  0  0  0  0  0  0
    3.8836   -0.9094    4.0697 H   0  0  0  0  0  0  0  0  0  0  0  0
   -0.5174   -2.4277   -1.3382 H   0  0  0  0  0  0  0  0  0  0  0  0
   -0.2549   -0.6658   -1.6173 H   0  0  0  0  0  0  0  0  0  0  0  0
   -1.2454    2.6500    0.1916 H   0  0  0  0  0  0  0  0  0  0  0  0
   -2.5120    3.3398    1.2381 H   0  0  0  0  0  0  0  0  0  0  0  0
   -0.4009    3.2326    2.4938 H   0  0  0  0  0  0  0  0  0  0  0  0
   -1.5422    2.0591    3.1808 H   0  0  0  0  0  0  0  0  0  0  0  0
   -0.2198    1.5140    2.1357 H   0  0  0  0  0  0  0  0  0  0  0  0
   -5.5537   -1.4904   -0.3553 H   0  0  0  0  0  0  0  0  0  0  0  0
   -4.7389   -0.7064   -1.7417 H   0  0  0  0  0  0  0  0  0  0  0  0
   -2.9236   -2.3312   -1.6775 H   0  0  0  0  0  0  0  0  0  0  0  0
   -3.5717   -3.0760   -0.2016 H   0  0  0  0  0  0  0  0  0  0  0  0
   -4.4529   -3.2175   -1.7341 H   0  0  0  0  0  0  0  0  0  0  0  0
  1  2  1  0  0  0  0
  2  3  1  0  0  0  0
  3  4  2  0  0  0  0
  4  5  2  0  0  0  0
  4  6  2  0  0  0  0
  6  7  1  0  0  0  0
  7  8  1  0  0  0  0
  4  9  1  0  0  0  0
  9 10  1  0  0  0  0
 10 11  1  0  0  0  0
 11 12  1  0  0  0  0
 12 13  2  0  0  0  0
 12 14  2  0  0  0  0
 14 15  1  0  0  0  0
 15 16  1  0  0  0  0
 12 17  2  0  0  0  0
 17 18  1  0  0  0  0
 18 19  1  0  0  0  0
  1 20  1  0  0  0  0
  1 21  1  0  0  0  0
  1 22  1  0  0  0  0
  2 23  1  0  0  0  0
  2 24  1  0  0  0  0
  7 25  1  0  0  0  0
  7 26  1  0  0  0  0
  8 27  1  0  0  0  0
  8 28  1  0  0  0  0
  8 29  1  0  0  0  0
 10 30  1  0  0  0  0
 10 31  1  0  0  0  0
 15 32  1  0  0  0  0
 15 33  1  0  0  0  0
 16 34  1  0  0  0  0
 16 35  1  0  0  0  0
 16 36  1  0  0  0  0
 18 37  1  0  0  0  0
 18 38  1  0  0  0  0
 19 39  1  0  0  0  0
 19 40  1  0  0  0  0
 19 41  1  0  0  0  0
M  END
