 xtb: 6.7.1 (edcfbbe)
          04092505203D

 41 40  0     0  0            999 V2000
    5.2368    0.6616   -1.0952 C   0  0  0  0  0  0  0  0  0  0  0  0
    4.7566    0.9250    0.3183 C   0  0  0  0  0  0  0  0  0  0  0  0
    3.7945   -0.0627    0.7351 O   0  0  0  0  0  0  0  0  0  0  0  0
    2.2295    0.1543    0.5912 P   0  0  0  0  0  0  0  0  0  0  0  0
    1.5358    1.8587    1.2672 S   0  0  0  0  0  0  0  0  0  0  0  0
    1.6456   -1.0653    1.3993 O   0  0  0  0  0  0  0  0  0  0  0  0
    2.2143   -2.3967    1.4748 C   0  0  0  0  0  0  0  0  0  0  0  0
    2.2233   -3.1048    0.1368 C   0  0  0  0  0  0  0  0  0  0  0  0
    1.8174   -0.1398   -1.4817 S   0  0  0  0  0  0  0  0  0  0  0  0
    0.0855    0.3234   -1.4193 C   0  0  0  0  0  0  0  0  0  0  0  0
   -0.9305   -1.0227   -0.6948 S   0  0  0  0  0  0  0  0  0  0  0  0
   -2.5943    0.1837   -0.1843 P   0  0  0  0  0  0  0  0  0  0  0  0
   -4.2046   -0.7335    0.4460 S   0  0  0  0  0  0  0  0  0  0  0  0
   -2.7821    1.1254   -1.4519 O   0  0  0  0  0  0  0  0  0  0  0  0
   -3.7321    0.8061   -2.4869 C   0  0  0  0  0  0  0  0  0  0  0  0
   -3.3009   -0.3888   -3.3145 C   0  0  0  0  0  0  0  0  0  0  0  0
   -1.9867    1.2922    0.7807 O   0  0  0  0  0  0  0  0  0  0  0  0
   -2.1232    1.2076    2.2092 C   0  0  0  0  0  0  0  0  0  0  0  0
   -1.4310   -0.0098    2.7879 C   0  0  0  0  0  0  0  0  0  0  0  0
    4.4162    0.7542   -1.8029 H   0  0  0  0  0  0  0  0  0  0  0  0
    6.0065    1.3842   -1.3467 H   0  0  0  0  0  0  0  0  0  0  0  0
    5.6502   -0.3403   -1.1674 H   0  0  0  0  0  0  0  0  0  0  0  0
    4.3064    1.9186    0.4109 H   0  0  0  0  0  0  0  0  0  0  0  0
    5.5727    0.8300    1.0370 H   0  0  0  0  0  0  0  0  0  0  0  0
    3.2225   -2.3120    1.8837 H   0  0  0  0  0  0  0  0  0  0  0  0
    1.5617   -2.9012    2.1889 H   0  0  0  0  0  0  0  0  0  0  0  0
    2.5247   -4.1365    0.2885 H   0  0  0  0  0  0  0  0  0  0  0  0
    1.2297   -3.0852   -0.3069 H   0  0  0  0  0  0  0  0  0  0  0  0
    2.9245   -2.6279   -0.5444 H   0  0  0  0  0  0  0  0  0  0  0  0
   -0.2310    0.4987   -2.4438 H   0  0  0  0  0  0  0  0  0  0  0  0
   -0.0304    1.2192   -0.8056 H   0  0  0  0  0  0  0  0  0  0  0  0
   -4.7025    0.6141   -2.0185 H   0  0  0  0  0  0  0  0  0  0  0  0
   -3.7832    1.7171   -3.0848 H   0  0  0  0  0  0  0  0  0  0  0  0
   -3.2526   -1.2776   -2.6858 H   0  0  0  0  0  0  0  0  0  0  0  0
   -4.0285   -0.5563   -4.1022 H   0  0  0  0  0  0  0  0  0  0  0  0
   -2.3252   -0.2182   -3.7622 H   0  0  0  0  0  0  0  0  0  0  0  0
   -1.6688    2.1327    2.5682 H   0  0  0  0  0  0  0  0  0  0  0  0
   -3.1899    1.1920    2.4526 H   0  0  0  0  0  0  0  0  0  0  0  0
   -1.8860   -0.9191    2.3947 H   0  0  0  0  0  0  0  0  0  0  0  0
   -0.3735   -0.0045    2.5316 H   0  0  0  0  0  0  0  0  0  0  0  0
   -1.5342   -0.0003    3.8681 H   0  0  0  0  0  0  0  0  0  0  0  0
  1  2  1  0  0  0  0
  2  3  1  0  0  0  0
  3  4  2  0  0  0  0
  4  5  2  0  0  0  0
  4  6  2  0  0  0  0
  6  7  1  0  0  0  0
  7  8  1  0  0  0  0
  4  9  1  0  0  0  0
  9 10  1  0  0  0  0
 10 11  1  0  0  0  0
 11 12  1  0  0  0  0
 12 13  2  0  0  0  0
 12 14  2  0  0  0  0
 14 15  1  0  0  0  0
 15 16  1  0  0  0  0
 12 17  2  0  0  0  0
 17 18  1  0  0  0  0
 18 19  1  0  0  0  0
  1 20  1  0  0  0  0
  1 21  1  0  0  0  0
  1 22  1  0  0  0  0
  2 23  1  0  0  0  0
  2 24  1  0  0  0  0
  7 25  1  0  0  0  0
  7 26  1  0  0  0  0
  8 27  1  0  0  0  0
  8 28  1  0  0  0  0
  8 29  1  0  0  0  0
 10 30  1  0  0  0  0
 10 31  1  0  0  0  0
 15 32  1  0  0  0  0
 15 33  1  0  0  0  0
 16 34  1  0  0  0  0
 16 35  1  0  0  0  0
 16 36  1  0  0  0  0
 18 37  1  0  0  0  0
 18 38  1  0  0  0  0
 19 39  1  0  0  0  0
 19 40  1  0  0  0  0
 19 41  1  0  0  0  0
M  END
