 xtb: 6.7.1 (edcfbbe)
          04092507313D

 38 37  0     0  0            999 V2000
    3.6014   -3.9919   -0.1133 C   0  0  0  0  0  0  0  0  0  0  0  0
    2.3353   -3.2961    0.3440 C   0  0  0  0  0  0  0  0  0  0  0  0
    2.5056   -1.8797    0.1428 O   0  0  0  0  0  0  0  0  0  0  0  0
    1.6423   -1.0644    0.6969 C   0  0  0  0  0  0  0  0  0  0  0  0
    0.7150   -1.4224    1.3998 O   0  0  0  0  0  0  0  0  0  0  0  0
    1.9078    0.3821    0.3415 C   0  0  0  0  0  0  0  0  0  0  0  0
    0.6988    0.9158   -0.4181 C   0  0  0  0  0  0  0  0  0  0  0  0
    0.4582    0.2795   -1.2792 H   0  0  0  0  0  0  0  0  0  0  0  0
    0.8324    2.3532   -0.9033 C   0  0  0  0  0  0  0  0  0  0  0  0
    0.1484    2.7970   -1.7969 O   0  0  0  0  0  0  0  0  0  0  0  0
    1.7390    3.0210   -0.2327 O   0  0  0  0  0  0  0  0  0  0  0  0
    1.9079    4.4247   -0.5239 C   0  0  0  0  0  0  0  0  0  0  0  0
    0.9272    5.2600    0.2827 C   0  0  0  0  0  0  0  0  0  0  0  0
   -0.8044    0.9402    0.6353 S   0  0  0  0  0  0  0  0  0  0  0  0
   -1.6770   -0.9183    0.0626 P   0  0  0  0  0  0  0  0  0  0  0  0
   -0.8376   -1.9108   -1.3994 S   0  0  0  0  0  0  0  0  0  0  0  0
   -1.9745   -1.7936    1.3348 O   0  0  0  0  0  0  0  0  0  0  0  0
   -2.4092   -1.2297    2.5875 C   0  0  0  0  0  0  0  0  0  0  0  0
   -3.1791   -0.4550   -0.2873 O   0  0  0  0  0  0  0  0  0  0  0  0
   -3.4522    0.3457   -1.4383 C   0  0  0  0  0  0  0  0  0  0  0  0
    4.4494   -3.6475    0.4711 H   0  0  0  0  0  0  0  0  0  0  0  0
    3.4868   -5.0628    0.0158 H   0  0  0  0  0  0  0  0  0  0  0  0
    3.7830   -3.7751   -1.1615 H   0  0  0  0  0  0  0  0  0  0  0  0
    2.1259   -3.4723    1.4038 H   0  0  0  0  0  0  0  0  0  0  0  0
    1.4633   -3.6130   -0.2380 H   0  0  0  0  0  0  0  0  0  0  0  0
    2.7967    0.4398   -0.2853 H   0  0  0  0  0  0  0  0  0  0  0  0
    2.0510    0.9627    1.2536 H   0  0  0  0  0  0  0  0  0  0  0  0
    2.9395    4.6364   -0.2438 H   0  0  0  0  0  0  0  0  0  0  0  0
    1.7605    4.5786   -1.5962 H   0  0  0  0  0  0  0  0  0  0  0  0
    1.0484    5.0604    1.3436 H   0  0  0  0  0  0  0  0  0  0  0  0
    1.1105    6.3121    0.0916 H   0  0  0  0  0  0  0  0  0  0  0  0
   -0.0934    5.0199   -0.0065 H   0  0  0  0  0  0  0  0  0  0  0  0
   -3.2623   -0.5719    2.4305 H   0  0  0  0  0  0  0  0  0  0  0  0
   -1.5820   -0.6838    3.0399 H   0  0  0  0  0  0  0  0  0  0  0  0
   -2.6843   -2.0847    3.1994 H   0  0  0  0  0  0  0  0  0  0  0  0
   -4.5330    0.4537   -1.4712 H   0  0  0  0  0  0  0  0  0  0  0  0
   -3.0902   -0.1551   -2.3378 H   0  0  0  0  0  0  0  0  0  0  0  0
   -2.9713    1.3209   -1.3449 H   0  0  0  0  0  0  0  0  0  0  0  0
  1  2  1  0  0  0  0
  2  3  1  0  0  0  0
  3  4  4  0  0  0  0
  4  5  2  0  0  0  0
  4  6  1  0  0  0  0
  6  7  1  0  0  0  0
  7  8  1  0  0  0  0
  7  9  1  0  0  0  0
  9 10  2  0  0  0  0
  9 11  4  0  0  0  0
 11 12  1  0  0  0  0
 12 13  1  0  0  0  0
  7 14  1  0  0  0  0
 14 15  1  0  0  0  0
 15 16  2  0  0  0  0
 15 17  2  0  0  0  0
 17 18  1  0  0  0  0
 15 19  1  0  0  0  0
 19 20  1  0  0  0  0
  1 21  1  0  0  0  0
  1 22  1  0  0  0  0
  1 23  1  0  0  0  0
  2 24  1  0  0  0  0
  2 25  1  0  0  0  0
  6 26  1  0  0  0  0
  6 27  1  0  0  0  0
 12 28  1  0  0  0  0
 12 29  1  0  0  0  0
 13 30  1  0  0  0  0
 13 31  1  0  0  0  0
 13 32  1  0  0  0  0
 18 33  1  0  0  0  0
 18 34  1  0  0  0  0
 18 35  1  0  0  0  0
 20 36  1  0  0  0  0
 20 37  1  0  0  0  0
 20 38  1  0  0  0  0
M  END
