 xtb: 6.7.1 (edcfbbe)
          04092507313D

 38 37  0     0  0            999 V2000
    3.9502   -2.7400    0.4768 C   0  0  0  0  0  0  0  0  0  0  0  0
    2.4320   -2.6913    0.4203 C   0  0  0  0  0  0  0  0  0  0  0  0
    1.9820   -1.9334   -0.7184 O   0  0  0  0  0  0  0  0  0  0  0  0
    1.9419   -0.6224   -0.6348 C   0  0  0  0  0  0  0  0  0  0  0  0
    2.2239    0.0293    0.3496 O   0  0  0  0  0  0  0  0  0  0  0  0
    1.5029    0.0141   -1.9414 C   0  0  0  0  0  0  0  0  0  0  0  0
    0.2773    0.9059   -1.7247 C   0  0  0  0  0  0  0  0  0  0  0  0
    0.1475    1.5680   -2.5841 H   0  0  0  0  0  0  0  0  0  0  0  0
    0.4133    1.7465   -0.4683 C   0  0  0  0  0  0  0  0  0  0  0  0
   -0.3209    1.5964    0.4939 O   0  0  0  0  0  0  0  0  0  0  0  0
    1.3330    2.6545   -0.5896 O   0  0  0  0  0  0  0  0  0  0  0  0
    1.6503    3.5101    0.5321 C   0  0  0  0  0  0  0  0  0  0  0  0
    3.0527    3.1963    1.0225 C   0  0  0  0  0  0  0  0  0  0  0  0
   -1.2678   -0.0558   -1.6274 S   0  0  0  0  0  0  0  0  0  0  0  0
   -1.7558   -0.3432    0.4309 P   0  0  0  0  0  0  0  0  0  0  0  0
   -0.5175   -1.0508    1.7767 S   0  0  0  0  0  0  0  0  0  0  0  0
   -2.7214    0.8157    0.9215 O   0  0  0  0  0  0  0  0  0  0  0  0
   -3.9370    1.1529    0.2274 C   0  0  0  0  0  0  0  0  0  0  0  0
   -2.8948   -1.4552    0.1290 O   0  0  0  0  0  0  0  0  0  0  0  0
   -2.5676   -2.8076   -0.1877 C   0  0  0  0  0  0  0  0  0  0  0  0
    4.2542   -3.3762    1.3012 H   0  0  0  0  0  0  0  0  0  0  0  0
    4.3461   -3.1400   -0.4527 H   0  0  0  0  0  0  0  0  0  0  0  0
    4.3511   -1.7418    0.6370 H   0  0  0  0  0  0  0  0  0  0  0  0
    2.0141   -2.2410    1.3260 H   0  0  0  0  0  0  0  0  0  0  0  0
    2.0053   -3.6824    0.2676 H   0  0  0  0  0  0  0  0  0  0  0  0
    1.2779   -0.7609   -2.6724 H   0  0  0  0  0  0  0  0  0  0  0  0
    2.3268    0.6371   -2.2951 H   0  0  0  0  0  0  0  0  0  0  0  0
    1.5793    4.5286    0.1457 H   0  0  0  0  0  0  0  0  0  0  0  0
    0.9084    3.3477    1.3178 H   0  0  0  0  0  0  0  0  0  0  0  0
    3.1106    2.1512    1.3184 H   0  0  0  0  0  0  0  0  0  0  0  0
    3.7760    3.3804    0.2339 H   0  0  0  0  0  0  0  0  0  0  0  0
    3.2820    3.8231    1.8776 H   0  0  0  0  0  0  0  0  0  0  0  0
   -3.7482    1.2534   -0.8418 H   0  0  0  0  0  0  0  0  0  0  0  0
   -4.2511    2.1018    0.6550 H   0  0  0  0  0  0  0  0  0  0  0  0
   -4.6843    0.3806    0.4004 H   0  0  0  0  0  0  0  0  0  0  0  0
   -3.4880   -3.3715   -0.0588 H   0  0  0  0  0  0  0  0  0  0  0  0
   -1.7976   -3.1737    0.4947 H   0  0  0  0  0  0  0  0  0  0  0  0
   -2.2163   -2.8747   -1.2173 H   0  0  0  0  0  0  0  0  0  0  0  0
  1  2  1  0  0  0  0
  2  3  1  0  0  0  0
  3  4  4  0  0  0  0
  4  5  2  0  0  0  0
  4  6  1  0  0  0  0
  6  7  1  0  0  0  0
  7  8  1  0  0  0  0
  7  9  1  0  0  0  0
  9 10  2  0  0  0  0
  9 11  4  0  0  0  0
 11 12  1  0  0  0  0
 12 13  1  0  0  0  0
  7 14  1  0  0  0  0
 14 15  1  0  0  0  0
 15 16  2  0  0  0  0
 15 17  2  0  0  0  0
 17 18  1  0  0  0  0
 15 19  1  0  0  0  0
 19 20  1  0  0  0  0
  1 21  1  0  0  0  0
  1 22  1  0  0  0  0
  1 23  1  0  0  0  0
  2 24  1  0  0  0  0
  2 25  1  0  0  0  0
  6 26  1  0  0  0  0
  6 27  1  0  0  0  0
 12 28  1  0  0  0  0
 12 29  1  0  0  0  0
 13 30  1  0  0  0  0
 13 31  1  0  0  0  0
 13 32  1  0  0  0  0
 18 33  1  0  0  0  0
 18 34  1  0  0  0  0
 18 35  1  0  0  0  0
 20 36  1  0  0  0  0
 20 37  1  0  0  0  0
 20 38  1  0  0  0  0
M  END
