 xtb: 6.7.1 (edcfbbe)
          04092505203D

 41 40  0     0  0            999 V2000
    4.5670   -1.7155   -0.7120 C   0  0  0  0  0  0  0  0  0  0  0  0
    4.6534   -0.2790   -0.2379 C   0  0  0  0  0  0  0  0  0  0  0  0
    3.4924    0.1199    0.5105 O   0  0  0  0  0  0  0  0  0  0  0  0
    2.0588    0.2938   -0.1578 P   0  0  0  0  0  0  0  0  0  0  0  0
    2.0956    1.0440   -1.9725 S   0  0  0  0  0  0  0  0  0  0  0  0
    1.3004    1.1128    0.9663 O   0  0  0  0  0  0  0  0  0  0  0  0
    1.3061    2.5516    1.0189 C   0  0  0  0  0  0  0  0  0  0  0  0
    2.6847    3.1089    1.3013 C   0  0  0  0  0  0  0  0  0  0  0  0
    1.1896   -1.6035    0.1000 S   0  0  0  0  0  0  0  0  0  0  0  0
    0.0193   -1.6340   -1.3027 C   0  0  0  0  0  0  0  0  0  0  0  0
   -1.6941   -1.8647   -0.7844 S   0  0  0  0  0  0  0  0  0  0  0  0
   -1.9949    0.0425    0.1025 P   0  0  0  0  0  0  0  0  0  0  0  0
   -1.3883    1.5666   -0.9646 S   0  0  0  0  0  0  0  0  0  0  0  0
   -1.3031   -0.0109    1.5155 O   0  0  0  0  0  0  0  0  0  0  0  0
   -1.5267   -1.0542    2.4982 C   0  0  0  0  0  0  0  0  0  0  0  0
   -2.6143   -0.6568    3.4738 C   0  0  0  0  0  0  0  0  0  0  0  0
   -3.5403    0.0543    0.4697 O   0  0  0  0  0  0  0  0  0  0  0  0
   -4.5696    0.3425   -0.4954 C   0  0  0  0  0  0  0  0  0  0  0  0
   -5.0558   -0.9167   -1.1852 C   0  0  0  0  0  0  0  0  0  0  0  0
    3.7854   -1.8119   -1.4643 H   0  0  0  0  0  0  0  0  0  0  0  0
    5.5159   -2.0042   -1.1524 H   0  0  0  0  0  0  0  0  0  0  0  0
    4.3374   -2.3758    0.1205 H   0  0  0  0  0  0  0  0  0  0  0  0
    4.7633    0.3990   -1.0904 H   0  0  0  0  0  0  0  0  0  0  0  0
    5.4771   -0.1342    0.4624 H   0  0  0  0  0  0  0  0  0  0  0  0
    0.9146    2.9335    0.0697 H   0  0  0  0  0  0  0  0  0  0  0  0
    0.5987    2.7817    1.8174 H   0  0  0  0  0  0  0  0  0  0  0  0
    2.6122    4.1821    1.4474 H   0  0  0  0  0  0  0  0  0  0  0  0
    3.1007    2.6461    2.1925 H   0  0  0  0  0  0  0  0  0  0  0  0
    3.3448    2.9108    0.4576 H   0  0  0  0  0  0  0  0  0  0  0  0
    0.2614   -2.4919   -1.9245 H   0  0  0  0  0  0  0  0  0  0  0  0
    0.1177   -0.6999   -1.8630 H   0  0  0  0  0  0  0  0  0  0  0  0
   -1.7798   -1.9827    1.9784 H   0  0  0  0  0  0  0  0  0  0  0  0
   -0.5600   -1.1638    2.9942 H   0  0  0  0  0  0  0  0  0  0  0  0
   -3.5640   -0.5502    2.9571 H   0  0  0  0  0  0  0  0  0  0  0  0
   -2.7033   -1.4263    4.2344 H   0  0  0  0  0  0  0  0  0  0  0  0
   -2.3645    0.2887    3.9476 H   0  0  0  0  0  0  0  0  0  0  0  0
   -5.3655    0.8051    0.0910 H   0  0  0  0  0  0  0  0  0  0  0  0
   -4.1805    1.0686   -1.2168 H   0  0  0  0  0  0  0  0  0  0  0  0
   -4.2664   -1.3508   -1.7942 H   0  0  0  0  0  0  0  0  0  0  0  0
   -5.3699   -1.6492   -0.4470 H   0  0  0  0  0  0  0  0  0  0  0  0
   -5.8977   -0.6665   -1.8229 H   0  0  0  0  0  0  0  0  0  0  0  0
  1  2  1  0  0  0  0
  2  3  1  0  0  0  0
  3  4  2  0  0  0  0
  4  5  2  0  0  0  0
  4  6  2  0  0  0  0
  6  7  1  0  0  0  0
  7  8  1  0  0  0  0
  4  9  1  0  0  0  0
  9 10  1  0  0  0  0
 10 11  1  0  0  0  0
 11 12  1  0  0  0  0
 12 13  2  0  0  0  0
 12 14  2  0  0  0  0
 14 15  1  0  0  0  0
 15 16  1  0  0  0  0
 12 17  2  0  0  0  0
 17 18  1  0  0  0  0
 18 19  1  0  0  0  0
  1 20  1  0  0  0  0
  1 21  1  0  0  0  0
  1 22  1  0  0  0  0
  2 23  1  0  0  0  0
  2 24  1  0  0  0  0
  7 25  1  0  0  0  0
  7 26  1  0  0  0  0
  8 27  1  0  0  0  0
  8 28  1  0  0  0  0
  8 29  1  0  0  0  0
 10 30  1  0  0  0  0
 10 31  1  0  0  0  0
 15 32  1  0  0  0  0
 15 33  1  0  0  0  0
 16 34  1  0  0  0  0
 16 35  1  0  0  0  0
 16 36  1  0  0  0  0
 18 37  1  0  0  0  0
 18 38  1  0  0  0  0
 19 39  1  0  0  0  0
 19 40  1  0  0  0  0
 19 41  1  0  0  0  0
M  END
