 xtb: 6.7.1 (edcfbbe)
          04092505203D

 41 40  0     0  0            999 V2000
    5.8073   -0.1926   -0.8543 C   0  0  0  0  0  0  0  0  0  0  0  0
    4.3547   -0.5853   -1.0330 C   0  0  0  0  0  0  0  0  0  0  0  0
    3.5503    0.3293   -0.2631 O   0  0  0  0  0  0  0  0  0  0  0  0
    1.9874    0.4632   -0.5289 P   0  0  0  0  0  0  0  0  0  0  0  0
    1.5396    0.7576   -2.4135 S   0  0  0  0  0  0  0  0  0  0  0  0
    1.6054    1.6502    0.4336 O   0  0  0  0  0  0  0  0  0  0  0  0
    2.2966    1.9774    1.6679 C   0  0  0  0  0  0  0  0  0  0  0  0
    2.3326    0.8252    2.6496 C   0  0  0  0  0  0  0  0  0  0  0  0
    1.2084   -1.3433    0.3112 S   0  0  0  0  0  0  0  0  0  0  0  0
    0.0526   -1.8589   -0.9910 C   0  0  0  0  0  0  0  0  0  0  0  0
   -1.6173   -2.1917   -0.3713 S   0  0  0  0  0  0  0  0  0  0  0  0
   -2.1403   -0.2732    0.3109 P   0  0  0  0  0  0  0  0  0  0  0  0
   -1.4669    1.3076   -0.6526 S   0  0  0  0  0  0  0  0  0  0  0  0
   -1.6765   -0.3944    1.8208 O   0  0  0  0  0  0  0  0  0  0  0  0
   -1.5536    0.7553    2.6821 C   0  0  0  0  0  0  0  0  0  0  0  0
   -2.8978    1.3696    3.0120 C   0  0  0  0  0  0  0  0  0  0  0  0
   -3.7227   -0.3428    0.4433 O   0  0  0  0  0  0  0  0  0  0  0  0
   -4.6070    0.0301   -0.6263 C   0  0  0  0  0  0  0  0  0  0  0  0
   -4.5143   -0.9194   -1.8033 C   0  0  0  0  0  0  0  0  0  0  0  0
    5.9676    0.8187   -1.2175 H   0  0  0  0  0  0  0  0  0  0  0  0
    6.0802   -0.2386    0.1958 H   0  0  0  0  0  0  0  0  0  0  0  0
    6.4315   -0.8776   -1.4184 H   0  0  0  0  0  0  0  0  0  0  0  0
    4.1651   -1.5971   -0.6642 H   0  0  0  0  0  0  0  0  0  0  0  0
    4.0469   -0.5217   -2.0821 H   0  0  0  0  0  0  0  0  0  0  0  0
    3.3060    2.3031    1.4112 H   0  0  0  0  0  0  0  0  0  0  0  0
    1.7211    2.8209    2.0535 H   0  0  0  0  0  0  0  0  0  0  0  0
    2.9281    0.0062    2.2512 H   0  0  0  0  0  0  0  0  0  0  0  0
    2.7782    1.1687    3.5780 H   0  0  0  0  0  0  0  0  0  0  0  0
    1.3295    0.4573    2.8481 H   0  0  0  0  0  0  0  0  0  0  0  0
    0.3995   -2.7990   -1.4124 H   0  0  0  0  0  0  0  0  0  0  0  0
    0.0260   -1.0736   -1.7528 H   0  0  0  0  0  0  0  0  0  0  0  0
   -1.0644    0.3598    3.5738 H   0  0  0  0  0  0  0  0  0  0  0  0
   -0.9079    1.4890    2.1869 H   0  0  0  0  0  0  0  0  0  0  0  0
   -2.7641    2.1437    3.7614 H   0  0  0  0  0  0  0  0  0  0  0  0
   -3.3339    1.8133    2.1181 H   0  0  0  0  0  0  0  0  0  0  0  0
   -3.5734    0.6080    3.3921 H   0  0  0  0  0  0  0  0  0  0  0  0
   -5.5963    0.0082   -0.1673 H   0  0  0  0  0  0  0  0  0  0  0  0
   -4.3612    1.0508   -0.9376 H   0  0  0  0  0  0  0  0  0  0  0  0
   -3.5403   -0.8242   -2.2822 H   0  0  0  0  0  0  0  0  0  0  0  0
   -4.6423   -1.9466   -1.4713 H   0  0  0  0  0  0  0  0  0  0  0  0
   -5.2855   -0.6730   -2.5262 H   0  0  0  0  0  0  0  0  0  0  0  0
  1  2  1  0  0  0  0
  2  3  1  0  0  0  0
  3  4  2  0  0  0  0
  4  5  2  0  0  0  0
  4  6  2  0  0  0  0
  6  7  1  0  0  0  0
  7  8  1  0  0  0  0
  4  9  1  0  0  0  0
  9 10  1  0  0  0  0
 10 11  1  0  0  0  0
 11 12  1  0  0  0  0
 12 13  2  0  0  0  0
 12 14  2  0  0  0  0
 14 15  1  0  0  0  0
 15 16  1  0  0  0  0
 12 17  2  0  0  0  0
 17 18  1  0  0  0  0
 18 19  1  0  0  0  0
  1 20  1  0  0  0  0
  1 21  1  0  0  0  0
  1 22  1  0  0  0  0
  2 23  1  0  0  0  0
  2 24  1  0  0  0  0
  7 25  1  0  0  0  0
  7 26  1  0  0  0  0
  8 27  1  0  0  0  0
  8 28  1  0  0  0  0
  8 29  1  0  0  0  0
 10 30  1  0  0  0  0
 10 31  1  0  0  0  0
 15 32  1  0  0  0  0
 15 33  1  0  0  0  0
 16 34  1  0  0  0  0
 16 35  1  0  0  0  0
 16 36  1  0  0  0  0
 18 37  1  0  0  0  0
 18 38  1  0  0  0  0
 19 39  1  0  0  0  0
 19 40  1  0  0  0  0
 19 41  1  0  0  0  0
M  END
