 xtb: 6.7.1 (edcfbbe)
          04092505213D

 41 40  0     0  0            999 V2000
    2.3519    2.6955   -0.2480 C   0  0  0  0  0  0  0  0  0  0  0  0
    3.1804    2.0585    0.8481 C   0  0  0  0  0  0  0  0  0  0  0  0
    3.3190    0.6404    0.6552 O   0  0  0  0  0  0  0  0  0  0  0  0
    2.0806   -0.3519    0.7204 P   0  0  0  0  0  0  0  0  0  0  0  0
    0.7795    0.0245    2.1432 S   0  0  0  0  0  0  0  0  0  0  0  0
    2.7748   -1.7752    0.8217 O   0  0  0  0  0  0  0  0  0  0  0  0
    3.1135   -2.3781    2.0874 C   0  0  0  0  0  0  0  0  0  0  0  0
    4.2392   -1.6408    2.7814 C   0  0  0  0  0  0  0  0  0  0  0  0
    1.4189   -0.4880   -1.2741 S   0  0  0  0  0  0  0  0  0  0  0  0
    0.1274   -1.7433   -0.9810 C   0  0  0  0  0  0  0  0  0  0  0  0
   -1.3780   -1.4616   -1.9536 S   0  0  0  0  0  0  0  0  0  0  0  0
   -2.3183    0.0320   -0.7916 P   0  0  0  0  0  0  0  0  0  0  0  0
   -4.1224    0.5461   -1.3480 S   0  0  0  0  0  0  0  0  0  0  0  0
   -1.2819    1.2434   -0.6881 O   0  0  0  0  0  0  0  0  0  0  0  0
   -1.3509    2.3504   -1.6033 C   0  0  0  0  0  0  0  0  0  0  0  0
   -0.8554    1.9725   -2.9847 C   0  0  0  0  0  0  0  0  0  0  0  0
   -2.1872   -0.6492    0.6350 O   0  0  0  0  0  0  0  0  0  0  0  0
   -3.0643   -0.2979    1.7249 C   0  0  0  0  0  0  0  0  0  0  0  0
   -2.8406    1.1214    2.1998 C   0  0  0  0  0  0  0  0  0  0  0  0
    1.3310    2.3179   -0.1963 H   0  0  0  0  0  0  0  0  0  0  0  0
    2.3402    3.7727   -0.1157 H   0  0  0  0  0  0  0  0  0  0  0  0
    2.7657    2.4535   -1.2239 H   0  0  0  0  0  0  0  0  0  0  0  0
    2.7210    2.2322    1.8269 H   0  0  0  0  0  0  0  0  0  0  0  0
    4.2074    2.4259    0.8483 H   0  0  0  0  0  0  0  0  0  0  0  0
    2.2169   -2.3922    2.7161 H   0  0  0  0  0  0  0  0  0  0  0  0
    3.3983   -3.3972    1.8231 H   0  0  0  0  0  0  0  0  0  0  0  0
    3.9054   -0.6471    3.0771 H   0  0  0  0  0  0  0  0  0  0  0  0
    4.5368   -2.1911    3.6685 H   0  0  0  0  0  0  0  0  0  0  0  0
    5.0904   -1.5412    2.1130 H   0  0  0  0  0  0  0  0  0  0  0  0
   -0.1292   -1.7437    0.0779 H   0  0  0  0  0  0  0  0  0  0  0  0
    0.5032   -2.7111   -1.3026 H   0  0  0  0  0  0  0  0  0  0  0  0
   -2.3900    2.6933   -1.6497 H   0  0  0  0  0  0  0  0  0  0  0  0
   -0.7286    3.1201   -1.1450 H   0  0  0  0  0  0  0  0  0  0  0  0
    0.1456    1.5509   -2.9291 H   0  0  0  0  0  0  0  0  0  0  0  0
   -1.5228    1.2329   -3.4268 H   0  0  0  0  0  0  0  0  0  0  0  0
   -0.8420    2.8561   -3.6143 H   0  0  0  0  0  0  0  0  0  0  0  0
   -4.0973   -0.4380    1.3912 H   0  0  0  0  0  0  0  0  0  0  0  0
   -2.8173   -1.0246    2.5001 H   0  0  0  0  0  0  0  0  0  0  0  0
   -3.4533    1.3076    3.0759 H   0  0  0  0  0  0  0  0  0  0  0  0
   -1.7930    1.2675    2.4532 H   0  0  0  0  0  0  0  0  0  0  0  0
   -3.1193    1.8227    1.4143 H   0  0  0  0  0  0  0  0  0  0  0  0
  1  2  1  0  0  0  0
  2  3  1  0  0  0  0
  3  4  2  0  0  0  0
  4  5  2  0  0  0  0
  4  6  2  0  0  0  0
  6  7  1  0  0  0  0
  7  8  1  0  0  0  0
  4  9  1  0  0  0  0
  9 10  1  0  0  0  0
 10 11  1  0  0  0  0
 11 12  1  0  0  0  0
 12 13  2  0  0  0  0
 12 14  1  0  0  0  0
 14 15  1  0  0  0  0
 15 16  1  0  0  0  0
 12 17  2  0  0  0  0
 17 18  1  0  0  0  0
 18 19  1  0  0  0  0
  1 20  1  0  0  0  0
  1 21  1  0  0  0  0
  1 22  1  0  0  0  0
  2 23  1  0  0  0  0
  2 24  1  0  0  0  0
  7 25  1  0  0  0  0
  7 26  1  0  0  0  0
  8 27  1  0  0  0  0
  8 28  1  0  0  0  0
  8 29  1  0  0  0  0
 10 30  1  0  0  0  0
 10 31  1  0  0  0  0
 15 32  1  0  0  0  0
 15 33  1  0  0  0  0
 16 34  1  0  0  0  0
 16 35  1  0  0  0  0
 16 36  1  0  0  0  0
 18 37  1  0  0  0  0
 18 38  1  0  0  0  0
 19 39  1  0  0  0  0
 19 40  1  0  0  0  0
 19 41  1  0  0  0  0
M  END
