 xtb: 6.7.1 (edcfbbe)
          04092505213D

 41 40  0     0  0            999 V2000
    2.0127    2.0940   -0.8865 C   0  0  0  0  0  0  0  0  0  0  0  0
    2.2386    0.7782   -1.6023 C   0  0  0  0  0  0  0  0  0  0  0  0
    2.8480   -0.2210   -0.7688 O   0  0  0  0  0  0  0  0  0  0  0  0
    2.3294   -0.7299    0.6450 P   0  0  0  0  0  0  0  0  0  0  0  0
    2.5493    0.4639    2.1895 S   0  0  0  0  0  0  0  0  0  0  0  0
    3.1271   -2.0923    0.7693 O   0  0  0  0  0  0  0  0  0  0  0  0
    4.3919   -2.1819    1.4545 C   0  0  0  0  0  0  0  0  0  0  0  0
    5.4977   -1.5100    0.6680 C   0  0  0  0  0  0  0  0  0  0  0  0
    0.3897   -1.5115    0.2862 S   0  0  0  0  0  0  0  0  0  0  0  0
   -0.5087   -0.6950    1.6354 C   0  0  0  0  0  0  0  0  0  0  0  0
   -1.1525    0.9485    1.2040 S   0  0  0  0  0  0  0  0  0  0  0  0
   -2.2862    0.4548   -0.5209 P   0  0  0  0  0  0  0  0  0  0  0  0
   -1.3975    0.3837   -2.2716 S   0  0  0  0  0  0  0  0  0  0  0  0
   -3.5014    1.4791   -0.4748 O   0  0  0  0  0  0  0  0  0  0  0  0
   -3.4341    2.7731   -1.0951 C   0  0  0  0  0  0  0  0  0  0  0  0
   -2.4715    3.6910   -0.3696 C   0  0  0  0  0  0  0  0  0  0  0  0
   -2.9543   -0.8869   -0.0134 O   0  0  0  0  0  0  0  0  0  0  0  0
   -3.4685   -1.8730   -0.9331 C   0  0  0  0  0  0  0  0  0  0  0  0
   -4.7155   -1.3824   -1.6376 C   0  0  0  0  0  0  0  0  0  0  0  0
    2.9403    2.4576   -0.4511 H   0  0  0  0  0  0  0  0  0  0  0  0
    1.6370    2.8224   -1.5984 H   0  0  0  0  0  0  0  0  0  0  0  0
    1.2807    1.9740   -0.0880 H   0  0  0  0  0  0  0  0  0  0  0  0
    2.9466    0.8911   -2.4252 H   0  0  0  0  0  0  0  0  0  0  0  0
    1.2946    0.3826   -1.9901 H   0  0  0  0  0  0  0  0  0  0  0  0
    4.2860   -1.7221    2.4426 H   0  0  0  0  0  0  0  0  0  0  0  0
    4.5591   -3.2545    1.5587 H   0  0  0  0  0  0  0  0  0  0  0  0
    6.4463   -1.6630    1.1729 H   0  0  0  0  0  0  0  0  0  0  0  0
    5.5483   -1.9226   -0.3360 H   0  0  0  0  0  0  0  0  0  0  0  0
    5.2994   -0.4411    0.5975 H   0  0  0  0  0  0  0  0  0  0  0  0
    0.1663   -0.5288    2.4762 H   0  0  0  0  0  0  0  0  0  0  0  0
   -1.3356   -1.3444    1.9072 H   0  0  0  0  0  0  0  0  0  0  0  0
   -3.1291    2.6420   -2.1388 H   0  0  0  0  0  0  0  0  0  0  0  0
   -4.4592    3.1430   -1.0499 H   0  0  0  0  0  0  0  0  0  0  0  0
   -2.7356    3.7622    0.6823 H   0  0  0  0  0  0  0  0  0  0  0  0
   -1.4578    3.2971   -0.4458 H   0  0  0  0  0  0  0  0  0  0  0  0
   -2.5018    4.6784   -0.8187 H   0  0  0  0  0  0  0  0  0  0  0  0
   -2.6824   -2.1167   -1.6551 H   0  0  0  0  0  0  0  0  0  0  0  0
   -3.6719   -2.7393   -0.3024 H   0  0  0  0  0  0  0  0  0  0  0  0
   -5.1277   -2.1849   -2.2411 H   0  0  0  0  0  0  0  0  0  0  0  0
   -5.4546   -1.0576   -0.9100 H   0  0  0  0  0  0  0  0  0  0  0  0
   -4.4674   -0.5431   -2.2861 H   0  0  0  0  0  0  0  0  0  0  0  0
  1  2  1  0  0  0  0
  2  3  1  0  0  0  0
  3  4  2  0  0  0  0
  4  5  2  0  0  0  0
  4  6  2  0  0  0  0
  6  7  1  0  0  0  0
  7  8  1  0  0  0  0
  4  9  1  0  0  0  0
  9 10  1  0  0  0  0
 10 11  1  0  0  0  0
 11 12  1  0  0  0  0
 12 13  2  0  0  0  0
 12 14  2  0  0  0  0
 14 15  1  0  0  0  0
 15 16  1  0  0  0  0
 12 17  2  0  0  0  0
 17 18  1  0  0  0  0
 18 19  1  0  0  0  0
  1 20  1  0  0  0  0
  1 21  1  0  0  0  0
  1 22  1  0  0  0  0
  2 23  1  0  0  0  0
  2 24  1  0  0  0  0
  7 25  1  0  0  0  0
  7 26  1  0  0  0  0
  8 27  1  0  0  0  0
  8 28  1  0  0  0  0
  8 29  1  0  0  0  0
 10 30  1  0  0  0  0
 10 31  1  0  0  0  0
 15 32  1  0  0  0  0
 15 33  1  0  0  0  0
 16 34  1  0  0  0  0
 16 35  1  0  0  0  0
 16 36  1  0  0  0  0
 18 37  1  0  0  0  0
 18 38  1  0  0  0  0
 19 39  1  0  0  0  0
 19 40  1  0  0  0  0
 19 41  1  0  0  0  0
M  END
