 xtb: 6.7.1 (edcfbbe)
          04092507313D

 38 37  0     0  0            999 V2000
    4.2116   -2.1635    1.0326 C   0  0  0  0  0  0  0  0  0  0  0  0
    2.7261   -1.9457    0.8191 C   0  0  0  0  0  0  0  0  0  0  0  0
    2.5568   -0.9703   -0.2282 O   0  0  0  0  0  0  0  0  0  0  0  0
    1.4850   -1.0204   -0.9855 C   0  0  0  0  0  0  0  0  0  0  0  0
    0.5833   -1.8274   -0.8563 O   0  0  0  0  0  0  0  0  0  0  0  0
    1.4885    0.0624   -2.0441 C   0  0  0  0  0  0  0  0  0  0  0  0
    0.3000    1.0065   -1.8362 C   0  0  0  0  0  0  0  0  0  0  0  0
    0.2697    1.7390   -2.6472 H   0  0  0  0  0  0  0  0  0  0  0  0
    0.3719    1.7387   -0.5108 C   0  0  0  0  0  0  0  0  0  0  0  0
   -0.5838    1.7987    0.2448 O   0  0  0  0  0  0  0  0  0  0  0  0
    1.5378    2.2576   -0.2772 O   0  0  0  0  0  0  0  0  0  0  0  0
    1.7635    2.9098    0.9945 C   0  0  0  0  0  0  0  0  0  0  0  0
    3.2612    2.9879    1.2096 C   0  0  0  0  0  0  0  0  0  0  0  0
   -1.3164    0.1565   -1.9051 S   0  0  0  0  0  0  0  0  0  0  0  0
   -1.6824   -0.3974    0.1079 P   0  0  0  0  0  0  0  0  0  0  0  0
   -0.5378   -0.6639    1.6956 S   0  0  0  0  0  0  0  0  0  0  0  0
   -3.0281    0.3888    0.4964 O   0  0  0  0  0  0  0  0  0  0  0  0
   -3.1291    1.4688    1.4211 C   0  0  0  0  0  0  0  0  0  0  0  0
   -2.3525   -1.7692   -0.3788 O   0  0  0  0  0  0  0  0  0  0  0  0
   -2.9086   -2.7098    0.5404 C   0  0  0  0  0  0  0  0  0  0  0  0
    4.6692   -2.5498    0.1264 H   0  0  0  0  0  0  0  0  0  0  0  0
    4.6901   -1.2260    1.2986 H   0  0  0  0  0  0  0  0  0  0  0  0
    4.3525   -2.8773    1.8372 H   0  0  0  0  0  0  0  0  0  0  0  0
    2.2370   -1.5561    1.7176 H   0  0  0  0  0  0  0  0  0  0  0  0
    2.2114   -2.8646    0.5215 H   0  0  0  0  0  0  0  0  0  0  0  0
    1.3830   -0.4128   -3.0195 H   0  0  0  0  0  0  0  0  0  0  0  0
    2.4207    0.6229   -1.9844 H   0  0  0  0  0  0  0  0  0  0  0  0
    1.3066    3.9019    0.9481 H   0  0  0  0  0  0  0  0  0  0  0  0
    1.2640    2.3264    1.7741 H   0  0  0  0  0  0  0  0  0  0  0  0
    3.6860    1.9887    1.2352 H   0  0  0  0  0  0  0  0  0  0  0  0
    3.7241    3.5487    0.4037 H   0  0  0  0  0  0  0  0  0  0  0  0
    3.4598    3.4837    2.1537 H   0  0  0  0  0  0  0  0  0  0  0  0
   -2.3966    1.3455    2.2209 H   0  0  0  0  0  0  0  0  0  0  0  0
   -4.1409    1.4259    1.8176 H   0  0  0  0  0  0  0  0  0  0  0  0
   -2.9516    2.4108    0.9059 H   0  0  0  0  0  0  0  0  0  0  0  0
   -3.0399   -3.6295   -0.0240 H   0  0  0  0  0  0  0  0  0  0  0  0
   -3.8655   -2.3446    0.9143 H   0  0  0  0  0  0  0  0  0  0  0  0
   -2.2223   -2.8713    1.3750 H   0  0  0  0  0  0  0  0  0  0  0  0
  1  2  1  0  0  0  0
  2  3  1  0  0  0  0
  3  4  4  0  0  0  0
  4  5  2  0  0  0  0
  4  6  1  0  0  0  0
  6  7  1  0  0  0  0
  7  8  1  0  0  0  0
  7  9  1  0  0  0  0
  9 10  2  0  0  0  0
  9 11  4  0  0  0  0
 11 12  1  0  0  0  0
 12 13  1  0  0  0  0
  7 14  1  0  0  0  0
 14 15  1  0  0  0  0
 15 16  2  0  0  0  0
 15 17  1  0  0  0  0
 17 18  1  0  0  0  0
 15 19  1  0  0  0  0
 19 20  1  0  0  0  0
  1 21  1  0  0  0  0
  1 22  1  0  0  0  0
  1 23  1  0  0  0  0
  2 24  1  0  0  0  0
  2 25  1  0  0  0  0
  6 26  1  0  0  0  0
  6 27  1  0  0  0  0
 12 28  1  0  0  0  0
 12 29  1  0  0  0  0
 13 30  1  0  0  0  0
 13 31  1  0  0  0  0
 13 32  1  0  0  0  0
 18 33  1  0  0  0  0
 18 34  1  0  0  0  0
 18 35  1  0  0  0  0
 20 36  1  0  0  0  0
 20 37  1  0  0  0  0
 20 38  1  0  0  0  0
M  END
