 xtb: 6.7.1 (edcfbbe)
          04092505203D

 41 40  0     0  0            999 V2000
    5.3553   -1.4889   -1.3597 C   0  0  0  0  0  0  0  0  0  0  0  0
    4.1725   -0.6610   -1.8192 C   0  0  0  0  0  0  0  0  0  0  0  0
    3.7445    0.2437   -0.7720 O   0  0  0  0  0  0  0  0  0  0  0  0
    2.5491   -0.0471    0.2137 P   0  0  0  0  0  0  0  0  0  0  0  0
    2.4274    1.4261    1.4924 S   0  0  0  0  0  0  0  0  0  0  0  0
    2.8993   -1.4989    0.7569 O   0  0  0  0  0  0  0  0  0  0  0  0
    1.9804   -2.3899    1.4146 C   0  0  0  0  0  0  0  0  0  0  0  0
    1.2212   -1.7274    2.5454 C   0  0  0  0  0  0  0  0  0  0  0  0
    0.8613   -0.4246   -1.0527 S   0  0  0  0  0  0  0  0  0  0  0  0
    0.2585    1.2766   -1.1632 C   0  0  0  0  0  0  0  0  0  0  0  0
   -0.8042    1.7590    0.2300 S   0  0  0  0  0  0  0  0  0  0  0  0
   -2.3103    0.3214   -0.1295 P   0  0  0  0  0  0  0  0  0  0  0  0
   -2.7233   -0.1070   -2.0012 S   0  0  0  0  0  0  0  0  0  0  0  0
   -3.5460    0.8193    0.7362 O   0  0  0  0  0  0  0  0  0  0  0  0
   -4.5603    1.6886    0.2048 C   0  0  0  0  0  0  0  0  0  0  0  0
   -4.0302    3.0796   -0.0780 C   0  0  0  0  0  0  0  0  0  0  0  0
   -1.7572   -0.8676    0.7591 O   0  0  0  0  0  0  0  0  0  0  0  0
   -2.1496   -2.2386    0.5369 C   0  0  0  0  0  0  0  0  0  0  0  0
   -3.6080   -2.4681    0.8731 C   0  0  0  0  0  0  0  0  0  0  0  0
    5.0719   -2.1197   -0.5217 H   0  0  0  0  0  0  0  0  0  0  0  0
    5.6939   -2.1120   -2.1815 H   0  0  0  0  0  0  0  0  0  0  0  0
    6.1652   -0.8359   -1.0462 H   0  0  0  0  0  0  0  0  0  0  0  0
    3.3294   -1.2951   -2.1081 H   0  0  0  0  0  0  0  0  0  0  0  0
    4.4445   -0.0083   -2.6507 H   0  0  0  0  0  0  0  0  0  0  0  0
    1.2919   -2.7818    0.6601 H   0  0  0  0  0  0  0  0  0  0  0  0
    2.6210   -3.1927    1.7847 H   0  0  0  0  0  0  0  0  0  0  0  0
    0.6492   -2.4753    3.0859 H   0  0  0  0  0  0  0  0  0  0  0  0
    1.9121   -1.2416    3.2307 H   0  0  0  0  0  0  0  0  0  0  0  0
    0.5380   -0.9722    2.1568 H   0  0  0  0  0  0  0  0  0  0  0  0
   -0.3124    1.3396   -2.0888 H   0  0  0  0  0  0  0  0  0  0  0  0
    1.0994    1.9673   -1.1619 H   0  0  0  0  0  0  0  0  0  0  0  0
   -4.9578    1.2369   -0.7100 H   0  0  0  0  0  0  0  0  0  0  0  0
   -5.3283    1.6998    0.9792 H   0  0  0  0  0  0  0  0  0  0  0  0
   -3.3115    3.0453   -0.8960 H   0  0  0  0  0  0  0  0  0  0  0  0
   -4.8531    3.7288   -0.3594 H   0  0  0  0  0  0  0  0  0  0  0  0
   -3.5359    3.4822    0.8028 H   0  0  0  0  0  0  0  0  0  0  0  0
   -1.9466   -2.4890   -0.5094 H   0  0  0  0  0  0  0  0  0  0  0  0
   -1.4894   -2.8087    1.1917 H   0  0  0  0  0  0  0  0  0  0  0  0
   -3.8177   -2.1285    1.8840 H   0  0  0  0  0  0  0  0  0  0  0  0
   -4.2393   -1.9153    0.1783 H   0  0  0  0  0  0  0  0  0  0  0  0
   -3.8350   -3.5263    0.7903 H   0  0  0  0  0  0  0  0  0  0  0  0
  1  2  1  0  0  0  0
  2  3  1  0  0  0  0
  3  4  2  0  0  0  0
  4  5  2  0  0  0  0
  4  6  2  0  0  0  0
  6  7  1  0  0  0  0
  7  8  1  0  0  0  0
  4  9  1  0  0  0  0
  9 10  1  0  0  0  0
 10 11  1  0  0  0  0
 11 12  1  0  0  0  0
 12 13  2  0  0  0  0
 12 14  2  0  0  0  0
 14 15  1  0  0  0  0
 15 16  1  0  0  0  0
 12 17  2  0  0  0  0
 17 18  1  0  0  0  0
 18 19  1  0  0  0  0
  1 20  1  0  0  0  0
  1 21  1  0  0  0  0
  1 22  1  0  0  0  0
  2 23  1  0  0  0  0
  2 24  1  0  0  0  0
  7 25  1  0  0  0  0
  7 26  1  0  0  0  0
  8 27  1  0  0  0  0
  8 28  1  0  0  0  0
  8 29  1  0  0  0  0
 10 30  1  0  0  0  0
 10 31  1  0  0  0  0
 15 32  1  0  0  0  0
 15 33  1  0  0  0  0
 16 34  1  0  0  0  0
 16 35  1  0  0  0  0
 16 36  1  0  0  0  0
 18 37  1  0  0  0  0
 18 38  1  0  0  0  0
 19 39  1  0  0  0  0
 19 40  1  0  0  0  0
 19 41  1  0  0  0  0
M  END
