 xtb: 6.7.1 (edcfbbe)
          04092507313D

 38 37  0     0  0            999 V2000
    5.2997   -0.7388   -1.8285 C   0  0  0  0  0  0  0  0  0  0  0  0
    4.5226   -1.3842   -0.6979 C   0  0  0  0  0  0  0  0  0  0  0  0
    3.1201   -1.3103   -1.0167 O   0  0  0  0  0  0  0  0  0  0  0  0
    2.2807   -1.9371   -0.2113 C   0  0  0  0  0  0  0  0  0  0  0  0
    2.6234   -2.6229    0.7251 O   0  0  0  0  0  0  0  0  0  0  0  0
    0.8371   -1.7589   -0.6461 C   0  0  0  0  0  0  0  0  0  0  0  0
    0.5488   -0.2983   -0.9731 C   0  0  0  0  0  0  0  0  0  0  0  0
    1.1633    0.0137   -1.8249 H   0  0  0  0  0  0  0  0  0  0  0  0
    0.9181    0.6070    0.1875 C   0  0  0  0  0  0  0  0  0  0  0  0
    1.8436    0.3612    0.9263 O   0  0  0  0  0  0  0  0  0  0  0  0
    0.1717    1.6926    0.2406 O   0  0  0  0  0  0  0  0  0  0  0  0
    0.4754    2.6787    1.2477 C   0  0  0  0  0  0  0  0  0  0  0  0
    1.5049    3.6689    0.7315 C   0  0  0  0  0  0  0  0  0  0  0  0
   -1.1627   -0.0395   -1.5333 S   0  0  0  0  0  0  0  0  0  0  0  0
   -2.1892    0.1682    0.3159 P   0  0  0  0  0  0  0  0  0  0  0  0
   -1.3632   -0.5897    1.9276 S   0  0  0  0  0  0  0  0  0  0  0  0
   -2.5927    1.6839    0.4939 O   0  0  0  0  0  0  0  0  0  0  0  0
   -3.2742    2.4217   -0.5431 C   0  0  0  0  0  0  0  0  0  0  0  0
   -3.6156   -0.4621   -0.0467 O   0  0  0  0  0  0  0  0  0  0  0  0
   -3.7794   -1.8690   -0.2556 C   0  0  0  0  0  0  0  0  0  0  0  0
    6.3607   -0.7969   -1.6100 H   0  0  0  0  0  0  0  0  0  0  0  0
    5.0964   -1.2551   -2.7618 H   0  0  0  0  0  0  0  0  0  0  0  0
    5.0125    0.3031   -1.9313 H   0  0  0  0  0  0  0  0  0  0  0  0
    4.6765   -0.8671    0.2549 H   0  0  0  0  0  0  0  0  0  0  0  0
    4.7908   -2.4370   -0.5643 H   0  0  0  0  0  0  0  0  0  0  0  0
    0.2027   -2.1130    0.1690 H   0  0  0  0  0  0  0  0  0  0  0  0
    0.6638   -2.3710   -1.5325 H   0  0  0  0  0  0  0  0  0  0  0  0
   -0.4817    3.1573    1.4571 H   0  0  0  0  0  0  0  0  0  0  0  0
    0.8350    2.1575    2.1399 H   0  0  0  0  0  0  0  0  0  0  0  0
    2.4489    3.1623    0.5435 H   0  0  0  0  0  0  0  0  0  0  0  0
    1.1551    4.1275   -0.1891 H   0  0  0  0  0  0  0  0  0  0  0  0
    1.6618    4.4384    1.4798 H   0  0  0  0  0  0  0  0  0  0  0  0
   -2.6820    2.4069   -1.4578 H   0  0  0  0  0  0  0  0  0  0  0  0
   -3.3664    3.4336   -0.1577 H   0  0  0  0  0  0  0  0  0  0  0  0
   -4.2545    1.9858   -0.7238 H   0  0  0  0  0  0  0  0  0  0  0  0
   -3.3535   -2.1519   -1.2180 H   0  0  0  0  0  0  0  0  0  0  0  0
   -4.8521   -2.0440   -0.2445 H   0  0  0  0  0  0  0  0  0  0  0  0
   -3.2960   -2.4277    0.5475 H   0  0  0  0  0  0  0  0  0  0  0  0
  1  2  1  0  0  0  0
  2  3  1  0  0  0  0
  3  4  1  0  0  0  0
  4  5  2  0  0  0  0
  4  6  1  0  0  0  0
  6  7  1  0  0  0  0
  7  8  1  0  0  0  0
  7  9  1  0  0  0  0
  9 10  2  0  0  0  0
  9 11  1  0  0  0  0
 11 12  1  0  0  0  0
 12 13  1  0  0  0  0
  7 14  1  0  0  0  0
 14 15  1  0  0  0  0
 15 16  2  0  0  0  0
 15 17  2  0  0  0  0
 17 18  1  0  0  0  0
 15 19  1  0  0  0  0
 19 20  1  0  0  0  0
  1 21  1  0  0  0  0
  1 22  1  0  0  0  0
  1 23  1  0  0  0  0
  2 24  1  0  0  0  0
  2 25  1  0  0  0  0
  6 26  1  0  0  0  0
  6 27  1  0  0  0  0
 12 28  1  0  0  0  0
 12 29  1  0  0  0  0
 13 30  1  0  0  0  0
 13 31  1  0  0  0  0
 13 32  1  0  0  0  0
 18 33  1  0  0  0  0
 18 34  1  0  0  0  0
 18 35  1  0  0  0  0
 20 36  1  0  0  0  0
 20 37  1  0  0  0  0
 20 38  1  0  0  0  0
M  END
