 xtb: 6.7.1 (edcfbbe)
          04092507313D

 38 37  0     0  0            999 V2000
    4.1148   -3.7858   -2.2785 C   0  0  0  0  0  0  0  0  0  0  0  0
    3.4050   -3.9334   -0.9421 C   0  0  0  0  0  0  0  0  0  0  0  0
    3.3002   -2.6619   -0.2717 O   0  0  0  0  0  0  0  0  0  0  0  0
    2.2581   -1.8972   -0.5322 C   0  0  0  0  0  0  0  0  0  0  0  0
    1.3501   -2.1975   -1.2754 O   0  0  0  0  0  0  0  0  0  0  0  0
    2.3377   -0.5913    0.2330 C   0  0  0  0  0  0  0  0  0  0  0  0
    1.0387    0.1856    0.1059 C   0  0  0  0  0  0  0  0  0  0  0  0
    0.6912    0.1379   -0.9379 H   0  0  0  0  0  0  0  0  0  0  0  0
    1.1874    1.6579    0.4389 C   0  0  0  0  0  0  0  0  0  0  0  0
    2.2025    2.2798    0.2289 O   0  0  0  0  0  0  0  0  0  0  0  0
    0.0786    2.1565    0.9438 O   0  0  0  0  0  0  0  0  0  0  0  0
    0.0120    3.5699    1.2245 C   0  0  0  0  0  0  0  0  0  0  0  0
   -0.6856    4.3013    0.0911 C   0  0  0  0  0  0  0  0  0  0  0  0
   -0.2752   -0.5818    1.1095 S   0  0  0  0  0  0  0  0  0  0  0  0
   -1.9352    0.2912    0.1071 P   0  0  0  0  0  0  0  0  0  0  0  0
   -1.6264    1.0164   -1.6842 S   0  0  0  0  0  0  0  0  0  0  0  0
   -3.0122   -0.8972    0.1569 O   0  0  0  0  0  0  0  0  0  0  0  0
   -2.8412   -2.0740   -0.6374 C   0  0  0  0  0  0  0  0  0  0  0  0
   -2.6188    1.3301    1.0784 O   0  0  0  0  0  0  0  0  0  0  0  0
   -2.9870    0.9888    2.4295 C   0  0  0  0  0  0  0  0  0  0  0  0
    4.2388   -4.7648   -2.7293 H   0  0  0  0  0  0  0  0  0  0  0  0
    3.5271   -3.1614   -2.9478 H   0  0  0  0  0  0  0  0  0  0  0  0
    5.0907   -3.3302   -2.1356 H   0  0  0  0  0  0  0  0  0  0  0  0
    3.9769   -4.5570   -0.2549 H   0  0  0  0  0  0  0  0  0  0  0  0
    2.3987   -4.3387   -1.0803 H   0  0  0  0  0  0  0  0  0  0  0  0
    3.1507    0.0110   -0.1810 H   0  0  0  0  0  0  0  0  0  0  0  0
    2.5745   -0.8059    1.2756 H   0  0  0  0  0  0  0  0  0  0  0  0
   -0.5562    3.6437    2.1523 H   0  0  0  0  0  0  0  0  0  0  0  0
    1.0320    3.9376    1.3655 H   0  0  0  0  0  0  0  0  0  0  0  0
   -0.1079    4.2153   -0.8267 H   0  0  0  0  0  0  0  0  0  0  0  0
   -1.6690    3.8695   -0.0807 H   0  0  0  0  0  0  0  0  0  0  0  0
   -0.7915    5.3495    0.3493 H   0  0  0  0  0  0  0  0  0  0  0  0
   -1.9653   -2.6308   -0.3025 H   0  0  0  0  0  0  0  0  0  0  0  0
   -2.7201   -1.8045   -1.6879 H   0  0  0  0  0  0  0  0  0  0  0  0
   -3.7462   -2.6585   -0.4948 H   0  0  0  0  0  0  0  0  0  0  0  0
   -3.3333    1.9187    2.8730 H   0  0  0  0  0  0  0  0  0  0  0  0
   -2.1193    0.6019    2.9640 H   0  0  0  0  0  0  0  0  0  0  0  0
   -3.7815    0.2454    2.4203 H   0  0  0  0  0  0  0  0  0  0  0  0
  1  2  1  0  0  0  0
  2  3  1  0  0  0  0
  3  4  1  0  0  0  0
  4  5  2  0  0  0  0
  4  6  1  0  0  0  0
  6  7  1  0  0  0  0
  7  8  1  0  0  0  0
  7  9  1  0  0  0  0
  9 10  2  0  0  0  0
  9 11  1  0  0  0  0
 11 12  1  0  0  0  0
 12 13  1  0  0  0  0
  7 14  1  0  0  0  0
 14 15  1  0  0  0  0
 15 16  2  0  0  0  0
 15 17  1  0  0  0  0
 17 18  1  0  0  0  0
 15 19  2  0  0  0  0
 19 20  1  0  0  0  0
  1 21  1  0  0  0  0
  1 22  1  0  0  0  0
  1 23  1  0  0  0  0
  2 24  1  0  0  0  0
  2 25  1  0  0  0  0
  6 26  1  0  0  0  0
  6 27  1  0  0  0  0
 12 28  1  0  0  0  0
 12 29  1  0  0  0  0
 13 30  1  0  0  0  0
 13 31  1  0  0  0  0
 13 32  1  0  0  0  0
 18 33  1  0  0  0  0
 18 34  1  0  0  0  0
 18 35  1  0  0  0  0
 20 36  1  0  0  0  0
 20 37  1  0  0  0  0
 20 38  1  0  0  0  0
M  END
