 xtb: 6.7.1 (edcfbbe)
          04092507313D

 38 37  0     0  0            999 V2000
    4.8616    0.4214   -1.8851 C   0  0  0  0  0  0  0  0  0  0  0  0
    4.5892   -0.9734   -1.3470 C   0  0  0  0  0  0  0  0  0  0  0  0
    3.1697   -1.2231   -1.3487 O   0  0  0  0  0  0  0  0  0  0  0  0
    2.5319   -1.3357   -0.2021 C   0  0  0  0  0  0  0  0  0  0  0  0
    3.0524   -1.3115    0.8895 O   0  0  0  0  0  0  0  0  0  0  0  0
    1.0399   -1.5211   -0.4275 C   0  0  0  0  0  0  0  0  0  0  0  0
    0.4558   -0.2991   -1.1428 C   0  0  0  0  0  0  0  0  0  0  0  0
    0.9607   -0.1534   -2.1008 H   0  0  0  0  0  0  0  0  0  0  0  0
    0.6007    0.9403   -0.2838 C   0  0  0  0  0  0  0  0  0  0  0  0
   -0.3639    1.5275    0.1685 O   0  0  0  0  0  0  0  0  0  0  0  0
    1.8446    1.2772   -0.0957 O   0  0  0  0  0  0  0  0  0  0  0  0
    2.1308    2.3323    0.8522 C   0  0  0  0  0  0  0  0  0  0  0  0
    2.1321    1.7795    2.2673 C   0  0  0  0  0  0  0  0  0  0  0  0
   -1.3100   -0.5113   -1.5286 S   0  0  0  0  0  0  0  0  0  0  0  0
   -2.2207   -0.0942    0.3344 P   0  0  0  0  0  0  0  0  0  0  0  0
   -1.4478   -0.4418    2.1019 S   0  0  0  0  0  0  0  0  0  0  0  0
   -3.0109    1.2941    0.3038 O   0  0  0  0  0  0  0  0  0  0  0  0
   -3.6365    1.7772   -0.8967 C   0  0  0  0  0  0  0  0  0  0  0  0
   -3.3863   -1.1772   -0.0037 O   0  0  0  0  0  0  0  0  0  0  0  0
   -4.4193   -1.4468    0.9438 C   0  0  0  0  0  0  0  0  0  0  0  0
    4.3664    1.1621   -1.2630 H   0  0  0  0  0  0  0  0  0  0  0  0
    5.9307    0.6059   -1.8788 H   0  0  0  0  0  0  0  0  0  0  0  0
    4.4886    0.5100   -2.9011 H   0  0  0  0  0  0  0  0  0  0  0  0
    4.9617   -1.0878   -0.3255 H   0  0  0  0  0  0  0  0  0  0  0  0
    5.0256   -1.7381   -1.9920 H   0  0  0  0  0  0  0  0  0  0  0  0
    0.5575   -1.6713    0.5412 H   0  0  0  0  0  0  0  0  0  0  0  0
    0.8818   -2.3990   -1.0548 H   0  0  0  0  0  0  0  0  0  0  0  0
    3.1172    2.6947    0.5636 H   0  0  0  0  0  0  0  0  0  0  0  0
    1.3808    3.1189    0.7367 H   0  0  0  0  0  0  0  0  0  0  0  0
    2.8040    0.9267    2.3340 H   0  0  0  0  0  0  0  0  0  0  0  0
    2.4546    2.5509    2.9581 H   0  0  0  0  0  0  0  0  0  0  0  0
    1.1328    1.4491    2.5472 H   0  0  0  0  0  0  0  0  0  0  0  0
   -4.4103    2.4657   -0.5656 H   0  0  0  0  0  0  0  0  0  0  0  0
   -4.0679    0.9518   -1.4650 H   0  0  0  0  0  0  0  0  0  0  0  0
   -2.8952    2.2980   -1.5018 H   0  0  0  0  0  0  0  0  0  0  0  0
   -5.0222   -0.5547    1.1204 H   0  0  0  0  0  0  0  0  0  0  0  0
   -3.9828   -1.7797    1.8874 H   0  0  0  0  0  0  0  0  0  0  0  0
   -5.0219   -2.2369    0.5032 H   0  0  0  0  0  0  0  0  0  0  0  0
  1  2  1  0  0  0  0
  2  3  1  0  0  0  0
  3  4  1  0  0  0  0
  4  5  2  0  0  0  0
  4  6  1  0  0  0  0
  6  7  1  0  0  0  0
  7  8  1  0  0  0  0
  7  9  1  0  0  0  0
  9 10  2  0  0  0  0
  9 11  4  0  0  0  0
 11 12  1  0  0  0  0
 12 13  1  0  0  0  0
  7 14  1  0  0  0  0
 14 15  1  0  0  0  0
 15 16  2  0  0  0  0
 15 17  1  0  0  0  0
 17 18  1  0  0  0  0
 15 19  1  0  0  0  0
 19 20  1  0  0  0  0
  1 21  1  0  0  0  0
  1 22  1  0  0  0  0
  1 23  1  0  0  0  0
  2 24  1  0  0  0  0
  2 25  1  0  0  0  0
  6 26  1  0  0  0  0
  6 27  1  0  0  0  0
 12 28  1  0  0  0  0
 12 29  1  0  0  0  0
 13 30  1  0  0  0  0
 13 31  1  0  0  0  0
 13 32  1  0  0  0  0
 18 33  1  0  0  0  0
 18 34  1  0  0  0  0
 18 35  1  0  0  0  0
 20 36  1  0  0  0  0
 20 37  1  0  0  0  0
 20 38  1  0  0  0  0
M  END
