 xtb: 6.7.1 (edcfbbe)
          04092505213D

 41 40  0     0  0            999 V2000
    4.2261   -2.3527   -1.5918 C   0  0  0  0  0  0  0  0  0  0  0  0
    4.7073   -0.9164   -1.5965 C   0  0  0  0  0  0  0  0  0  0  0  0
    4.0644   -0.1161   -0.5873 O   0  0  0  0  0  0  0  0  0  0  0  0
    2.5069    0.2091   -0.5929 P   0  0  0  0  0  0  0  0  0  0  0  0
    1.7197    0.6157   -2.3344 S   0  0  0  0  0  0  0  0  0  0  0  0
    2.4309    1.4357    0.3914 O   0  0  0  0  0  0  0  0  0  0  0  0
    2.9783    1.4056    1.7356 C   0  0  0  0  0  0  0  0  0  0  0  0
    2.0363    2.1587    2.6513 C   0  0  0  0  0  0  0  0  0  0  0  0
    1.6391   -1.4330    0.4588 S   0  0  0  0  0  0  0  0  0  0  0  0
   -0.0491   -1.1253   -0.0733 C   0  0  0  0  0  0  0  0  0  0  0  0
   -0.7235    0.3509    0.7748 S   0  0  0  0  0  0  0  0  0  0  0  0
   -2.7562   -0.0158    0.2881 P   0  0  0  0  0  0  0  0  0  0  0  0
   -4.0663    1.2848    0.9382 S   0  0  0  0  0  0  0  0  0  0  0  0
   -2.9964   -1.5271    0.7179 O   0  0  0  0  0  0  0  0  0  0  0  0
   -3.5096   -1.8651    2.0205 C   0  0  0  0  0  0  0  0  0  0  0  0
   -2.5092   -1.5783    3.1231 C   0  0  0  0  0  0  0  0  0  0  0  0
   -2.7370   -0.2872   -1.2787 O   0  0  0  0  0  0  0  0  0  0  0  0
   -3.0427    0.7528   -2.2235 C   0  0  0  0  0  0  0  0  0  0  0  0
   -1.9860    1.8395   -2.2464 C   0  0  0  0  0  0  0  0  0  0  0  0
    3.1897   -2.4013   -1.9222 H   0  0  0  0  0  0  0  0  0  0  0  0
    4.8382   -2.9355   -2.2727 H   0  0  0  0  0  0  0  0  0  0  0  0
    4.2966   -2.7732   -0.5919 H   0  0  0  0  0  0  0  0  0  0  0  0
    4.5258   -0.4523   -2.5707 H   0  0  0  0  0  0  0  0  0  0  0  0
    5.7662   -0.8454   -1.3440 H   0  0  0  0  0  0  0  0  0  0  0  0
    3.0921    0.3639    2.0490 H   0  0  0  0  0  0  0  0  0  0  0  0
    3.9604    1.8792    1.6875 H   0  0  0  0  0  0  0  0  0  0  0  0
    1.0611    1.6777    2.6637 H   0  0  0  0  0  0  0  0  0  0  0  0
    2.4471    2.1689    3.6556 H   0  0  0  0  0  0  0  0  0  0  0  0
    1.9128    3.1792    2.3007 H   0  0  0  0  0  0  0  0  0  0  0  0
   -0.6437   -1.9962    0.1910 H   0  0  0  0  0  0  0  0  0  0  0  0
   -0.0562   -0.9494   -1.1504 H   0  0  0  0  0  0  0  0  0  0  0  0
   -4.4332   -1.3016    2.1855 H   0  0  0  0  0  0  0  0  0  0  0  0
   -3.7342   -2.9299    1.9439 H   0  0  0  0  0  0  0  0  0  0  0  0
   -2.3307   -0.5055    3.1912 H   0  0  0  0  0  0  0  0  0  0  0  0
   -2.9115   -1.9275    4.0688 H   0  0  0  0  0  0  0  0  0  0  0  0
   -1.5655   -2.0821    2.9282 H   0  0  0  0  0  0  0  0  0  0  0  0
   -3.1031    0.2310   -3.1794 H   0  0  0  0  0  0  0  0  0  0  0  0
   -4.0185    1.1776   -1.9674 H   0  0  0  0  0  0  0  0  0  0  0  0
   -1.9482    2.3429   -1.2800 H   0  0  0  0  0  0  0  0  0  0  0  0
   -1.0036    1.4254   -2.4662 H   0  0  0  0  0  0  0  0  0  0  0  0
   -2.2372    2.5683   -3.0102 H   0  0  0  0  0  0  0  0  0  0  0  0
  1  2  1  0  0  0  0
  2  3  1  0  0  0  0
  3  4  2  0  0  0  0
  4  5  2  0  0  0  0
  4  6  2  0  0  0  0
  6  7  1  0  0  0  0
  7  8  1  0  0  0  0
  4  9  1  0  0  0  0
  9 10  1  0  0  0  0
 10 11  1  0  0  0  0
 11 12  1  0  0  0  0
 12 13  2  0  0  0  0
 12 14  2  0  0  0  0
 14 15  1  0  0  0  0
 15 16  1  0  0  0  0
 12 17  2  0  0  0  0
 17 18  1  0  0  0  0
 18 19  1  0  0  0  0
  1 20  1  0  0  0  0
  1 21  1  0  0  0  0
  1 22  1  0  0  0  0
  2 23  1  0  0  0  0
  2 24  1  0  0  0  0
  7 25  1  0  0  0  0
  7 26  1  0  0  0  0
  8 27  1  0  0  0  0
  8 28  1  0  0  0  0
  8 29  1  0  0  0  0
 10 30  1  0  0  0  0
 10 31  1  0  0  0  0
 15 32  1  0  0  0  0
 15 33  1  0  0  0  0
 16 34  1  0  0  0  0
 16 35  1  0  0  0  0
 16 36  1  0  0  0  0
 18 37  1  0  0  0  0
 18 38  1  0  0  0  0
 19 39  1  0  0  0  0
 19 40  1  0  0  0  0
 19 41  1  0  0  0  0
M  END
