 xtb: 6.7.1 (edcfbbe)
          04092505213D

 41 40  0     0  0            999 V2000
    0.9348    1.4139    3.1769 C   0  0  0  0  0  0  0  0  0  0  0  0
    2.0827    1.2192    2.2075 C   0  0  0  0  0  0  0  0  0  0  0  0
    2.1160   -0.1800    1.8260 O   0  0  0  0  0  0  0  0  0  0  0  0
    2.6043   -0.6827    0.4158 P   0  0  0  0  0  0  0  0  0  0  0  0
    2.4882   -2.6341    0.3461 S   0  0  0  0  0  0  0  0  0  0  0  0
    4.0339    0.0050    0.3165 O   0  0  0  0  0  0  0  0  0  0  0  0
    4.7881    0.1966   -0.8957 C   0  0  0  0  0  0  0  0  0  0  0  0
    4.9894   -1.0885   -1.6706 C   0  0  0  0  0  0  0  0  0  0  0  0
    1.4684    0.3649   -1.0561 S   0  0  0  0  0  0  0  0  0  0  0  0
    0.0562   -0.7590   -1.0366 C   0  0  0  0  0  0  0  0  0  0  0  0
   -0.9642   -0.5906    0.4540 S   0  0  0  0  0  0  0  0  0  0  0  0
   -2.6368    0.4762   -0.3452 P   0  0  0  0  0  0  0  0  0  0  0  0
   -2.7275    0.5530   -2.3065 S   0  0  0  0  0  0  0  0  0  0  0  0
   -2.7353    1.8536    0.4197 O   0  0  0  0  0  0  0  0  0  0  0  0
   -2.2698    3.0913   -0.1510 C   0  0  0  0  0  0  0  0  0  0  0  0
   -0.7640    3.2243   -0.0505 C   0  0  0  0  0  0  0  0  0  0  0  0
   -3.8613   -0.2115    0.3835 O   0  0  0  0  0  0  0  0  0  0  0  0
   -4.2431   -1.5633    0.0593 C   0  0  0  0  0  0  0  0  0  0  0  0
   -5.5917   -1.8271    0.6975 C   0  0  0  0  0  0  0  0  0  0  0  0
   -0.0097    1.1576    2.7021 H   0  0  0  0  0  0  0  0  0  0  0  0
    1.0674    0.7703    4.0417 H   0  0  0  0  0  0  0  0  0  0  0  0
    0.9108    2.4498    3.5002 H   0  0  0  0  0  0  0  0  0  0  0  0
    3.0433    1.4519    2.6704 H   0  0  0  0  0  0  0  0  0  0  0  0
    1.9580    1.8284    1.3069 H   0  0  0  0  0  0  0  0  0  0  0  0
    4.2673    0.9393   -1.5064 H   0  0  0  0  0  0  0  0  0  0  0  0
    5.7376    0.6038   -0.5438 H   0  0  0  0  0  0  0  0  0  0  0  0
    5.6328   -0.8989   -2.5237 H   0  0  0  0  0  0  0  0  0  0  0  0
    5.4439   -1.8467   -1.0373 H   0  0  0  0  0  0  0  0  0  0  0  0
    4.0323   -1.4683   -2.0256 H   0  0  0  0  0  0  0  0  0  0  0  0
    0.4303   -1.7833   -1.0588 H   0  0  0  0  0  0  0  0  0  0  0  0
   -0.5534   -0.5327   -1.9148 H   0  0  0  0  0  0  0  0  0  0  0  0
   -2.5953    3.1429   -1.1951 H   0  0  0  0  0  0  0  0  0  0  0  0
   -2.7809    3.8576    0.4336 H   0  0  0  0  0  0  0  0  0  0  0  0
   -0.4670    4.2080   -0.3996 H   0  0  0  0  0  0  0  0  0  0  0  0
   -0.4445    3.0969    0.9803 H   0  0  0  0  0  0  0  0  0  0  0  0
   -0.2786    2.4725   -0.6723 H   0  0  0  0  0  0  0  0  0  0  0  0
   -4.2900   -1.6633   -1.0308 H   0  0  0  0  0  0  0  0  0  0  0  0
   -3.4788   -2.2440    0.4471 H   0  0  0  0  0  0  0  0  0  0  0  0
   -5.8979   -2.8446    0.4778 H   0  0  0  0  0  0  0  0  0  0  0  0
   -5.5231   -1.6943    1.7732 H   0  0  0  0  0  0  0  0  0  0  0  0
   -6.3307   -1.1350    0.3043 H   0  0  0  0  0  0  0  0  0  0  0  0
  1  2  1  0  0  0  0
  2  3  1  0  0  0  0
  3  4  2  0  0  0  0
  4  5  2  0  0  0  0
  4  6  2  0  0  0  0
  6  7  1  0  0  0  0
  7  8  1  0  0  0  0
  4  9  1  0  0  0  0
  9 10  1  0  0  0  0
 10 11  1  0  0  0  0
 11 12  1  0  0  0  0
 12 13  2  0  0  0  0
 12 14  2  0  0  0  0
 14 15  1  0  0  0  0
 15 16  1  0  0  0  0
 12 17  2  0  0  0  0
 17 18  1  0  0  0  0
 18 19  1  0  0  0  0
  1 20  1  0  0  0  0
  1 21  1  0  0  0  0
  1 22  1  0  0  0  0
  2 23  1  0  0  0  0
  2 24  1  0  0  0  0
  7 25  1  0  0  0  0
  7 26  1  0  0  0  0
  8 27  1  0  0  0  0
  8 28  1  0  0  0  0
  8 29  1  0  0  0  0
 10 30  1  0  0  0  0
 10 31  1  0  0  0  0
 15 32  1  0  0  0  0
 15 33  1  0  0  0  0
 16 34  1  0  0  0  0
 16 35  1  0  0  0  0
 16 36  1  0  0  0  0
 18 37  1  0  0  0  0
 18 38  1  0  0  0  0
 19 39  1  0  0  0  0
 19 40  1  0  0  0  0
 19 41  1  0  0  0  0
M  END
