 xtb: 6.7.1 (edcfbbe)
          04092505203D

 41 40  0     0  0            999 V2000
    3.2903    1.8661   -1.4043 C   0  0  0  0  0  0  0  0  0  0  0  0
    1.9759    2.1489   -0.7107 C   0  0  0  0  0  0  0  0  0  0  0  0
    1.8830    1.5538    0.6062 O   0  0  0  0  0  0  0  0  0  0  0  0
    2.0919    0.0325    0.9766 P   0  0  0  0  0  0  0  0  0  0  0  0
    1.5007   -0.3564    2.7986 S   0  0  0  0  0  0  0  0  0  0  0  0
    3.6551   -0.1646    0.7466 O   0  0  0  0  0  0  0  0  0  0  0  0
    4.3883   -1.2388    1.3560 C   0  0  0  0  0  0  0  0  0  0  0  0
    3.9831   -2.5937    0.8117 C   0  0  0  0  0  0  0  0  0  0  0  0
    1.1632   -1.0542   -0.6168 S   0  0  0  0  0  0  0  0  0  0  0  0
   -0.2234   -1.7645    0.3080 C   0  0  0  0  0  0  0  0  0  0  0  0
   -1.4236   -0.5403    0.8848 S   0  0  0  0  0  0  0  0  0  0  0  0
   -2.0936    0.1433   -1.0261 P   0  0  0  0  0  0  0  0  0  0  0  0
   -1.9051   -1.1345   -2.4956 S   0  0  0  0  0  0  0  0  0  0  0  0
   -1.3071    1.4908   -1.3044 O   0  0  0  0  0  0  0  0  0  0  0  0
   -1.6631    2.7900   -0.7706 C   0  0  0  0  0  0  0  0  0  0  0  0
   -1.5441    2.8548    0.7380 C   0  0  0  0  0  0  0  0  0  0  0  0
   -3.5679    0.6772   -0.7644 O   0  0  0  0  0  0  0  0  0  0  0  0
   -4.7223   -0.1735   -0.8843 C   0  0  0  0  0  0  0  0  0  0  0  0
   -4.7427   -1.2707    0.1596 C   0  0  0  0  0  0  0  0  0  0  0  0
    3.3704    0.8073   -1.6427 H   0  0  0  0  0  0  0  0  0  0  0  0
    3.3312    2.4380   -2.3265 H   0  0  0  0  0  0  0  0  0  0  0  0
    4.1233    2.1489   -0.7662 H   0  0  0  0  0  0  0  0  0  0  0  0
    1.1389    1.7828   -1.3122 H   0  0  0  0  0  0  0  0  0  0  0  0
    1.8513    3.2140   -0.5075 H   0  0  0  0  0  0  0  0  0  0  0  0
    5.4292   -1.0079    1.1256 H   0  0  0  0  0  0  0  0  0  0  0  0
    4.2278   -1.1966    2.4380 H   0  0  0  0  0  0  0  0  0  0  0  0
    4.0360   -2.5994   -0.2741 H   0  0  0  0  0  0  0  0  0  0  0  0
    4.6482   -3.3537    1.2090 H   0  0  0  0  0  0  0  0  0  0  0  0
    2.9635   -2.8263    1.1159 H   0  0  0  0  0  0  0  0  0  0  0  0
    0.1421   -2.2637    1.2038 H   0  0  0  0  0  0  0  0  0  0  0  0
   -0.7053   -2.4616   -0.3764 H   0  0  0  0  0  0  0  0  0  0  0  0
   -0.9582    3.4639   -1.2600 H   0  0  0  0  0  0  0  0  0  0  0  0
   -2.6810    3.0216   -1.0885 H   0  0  0  0  0  0  0  0  0  0  0  0
   -0.5517    2.5485    1.0633 H   0  0  0  0  0  0  0  0  0  0  0  0
   -1.7234    3.8746    1.0641 H   0  0  0  0  0  0  0  0  0  0  0  0
   -2.2777    2.2003    1.2053 H   0  0  0  0  0  0  0  0  0  0  0  0
   -5.5623    0.5122   -0.7646 H   0  0  0  0  0  0  0  0  0  0  0  0
   -4.7298   -0.6024   -1.8910 H   0  0  0  0  0  0  0  0  0  0  0  0
   -4.6213   -0.8523    1.1557 H   0  0  0  0  0  0  0  0  0  0  0  0
   -5.6884   -1.8001    0.1036 H   0  0  0  0  0  0  0  0  0  0  0  0
   -3.9336   -1.9755   -0.0264 H   0  0  0  0  0  0  0  0  0  0  0  0
  1  2  1  0  0  0  0
  2  3  1  0  0  0  0
  3  4  2  0  0  0  0
  4  5  2  0  0  0  0
  4  6  2  0  0  0  0
  6  7  1  0  0  0  0
  7  8  1  0  0  0  0
  4  9  1  0  0  0  0
  9 10  1  0  0  0  0
 10 11  1  0  0  0  0
 11 12  1  0  0  0  0
 12 13  2  0  0  0  0
 12 14  2  0  0  0  0
 14 15  1  0  0  0  0
 15 16  1  0  0  0  0
 12 17  2  0  0  0  0
 17 18  1  0  0  0  0
 18 19  1  0  0  0  0
  1 20  1  0  0  0  0
  1 21  1  0  0  0  0
  1 22  1  0  0  0  0
  2 23  1  0  0  0  0
  2 24  1  0  0  0  0
  7 25  1  0  0  0  0
  7 26  1  0  0  0  0
  8 27  1  0  0  0  0
  8 28  1  0  0  0  0
  8 29  1  0  0  0  0
 10 30  1  0  0  0  0
 10 31  1  0  0  0  0
 15 32  1  0  0  0  0
 15 33  1  0  0  0  0
 16 34  1  0  0  0  0
 16 35  1  0  0  0  0
 16 36  1  0  0  0  0
 18 37  1  0  0  0  0
 18 38  1  0  0  0  0
 19 39  1  0  0  0  0
 19 40  1  0  0  0  0
 19 41  1  0  0  0  0
M  END
