 xtb: 6.7.1 (edcfbbe)
          04092507313D

 38 37  0     0  0            999 V2000
    5.4472   -1.1785   -0.8476 C   0  0  0  0  0  0  0  0  0  0  0  0
    4.6357   -2.1408   -1.7000 C   0  0  0  0  0  0  0  0  0  0  0  0
    3.3640   -2.3998   -1.0752 O   0  0  0  0  0  0  0  0  0  0  0  0
    2.3132   -1.7092   -1.4652 C   0  0  0  0  0  0  0  0  0  0  0  0
    2.3014   -0.9175   -2.3834 O   0  0  0  0  0  0  0  0  0  0  0  0
    1.0823   -2.0733   -0.6526 C   0  0  0  0  0  0  0  0  0  0  0  0
    0.3095   -0.7977   -0.3504 C   0  0  0  0  0  0  0  0  0  0  0  0
    0.0477   -0.2901   -1.2909 H   0  0  0  0  0  0  0  0  0  0  0  0
    1.1655    0.1853    0.4250 C   0  0  0  0  0  0  0  0  0  0  0  0
    2.3755    0.1604    0.3925 O   0  0  0  0  0  0  0  0  0  0  0  0
    0.4472    1.0624    1.0913 O   0  0  0  0  0  0  0  0  0  0  0  0
    1.1413    2.1157    1.7974 C   0  0  0  0  0  0  0  0  0  0  0  0
    0.3571    2.4891    3.0394 C   0  0  0  0  0  0  0  0  0  0  0  0
   -1.2433   -1.1549    0.5230 S   0  0  0  0  0  0  0  0  0  0  0  0
   -2.2471    0.6873    0.1430 P   0  0  0  0  0  0  0  0  0  0  0  0
   -1.5701    1.7850   -1.3313 S   0  0  0  0  0  0  0  0  0  0  0  0
   -3.7623    0.2023   -0.0457 O   0  0  0  0  0  0  0  0  0  0  0  0
   -4.1667   -0.5413   -1.1996 C   0  0  0  0  0  0  0  0  0  0  0  0
   -2.3752    1.4626    1.5101 O   0  0  0  0  0  0  0  0  0  0  0  0
   -2.9629    0.8411    2.6724 C   0  0  0  0  0  0  0  0  0  0  0  0
    5.6317   -1.6108    0.1314 H   0  0  0  0  0  0  0  0  0  0  0  0
    6.3928   -0.9688   -1.3362 H   0  0  0  0  0  0  0  0  0  0  0  0
    4.8952   -0.2498   -0.7173 H   0  0  0  0  0  0  0  0  0  0  0  0
    5.1189   -3.1157   -1.7741 H   0  0  0  0  0  0  0  0  0  0  0  0
    4.4558   -1.7258   -2.6959 H   0  0  0  0  0  0  0  0  0  0  0  0
    1.3939   -2.5767    0.2615 H   0  0  0  0  0  0  0  0  0  0  0  0
    0.4594   -2.7462   -1.2435 H   0  0  0  0  0  0  0  0  0  0  0  0
    2.1447    1.7516    2.0372 H   0  0  0  0  0  0  0  0  0  0  0  0
    1.2219    2.9607    1.1075 H   0  0  0  0  0  0  0  0  0  0  0  0
    0.2489    1.6272    3.6916 H   0  0  0  0  0  0  0  0  0  0  0  0
    0.8908    3.2726    3.5671 H   0  0  0  0  0  0  0  0  0  0  0  0
   -0.6264    2.8525    2.7574 H   0  0  0  0  0  0  0  0  0  0  0  0
   -3.8142   -0.0492   -2.1075 H   0  0  0  0  0  0  0  0  0  0  0  0
   -5.2532   -0.5548   -1.1736 H   0  0  0  0  0  0  0  0  0  0  0  0
   -3.7683   -1.5544   -1.1455 H   0  0  0  0  0  0  0  0  0  0  0  0
   -4.0236    0.6695    2.5021 H   0  0  0  0  0  0  0  0  0  0  0  0
   -2.8115    1.5473    3.4844 H   0  0  0  0  0  0  0  0  0  0  0  0
   -2.4613   -0.1037    2.8821 H   0  0  0  0  0  0  0  0  0  0  0  0
  1  2  1  0  0  0  0
  2  3  1  0  0  0  0
  3  4  1  0  0  0  0
  4  5  2  0  0  0  0
  4  6  1  0  0  0  0
  6  7  1  0  0  0  0
  7  8  1  0  0  0  0
  7  9  1  0  0  0  0
  9 10  2  0  0  0  0
  9 11  1  0  0  0  0
 11 12  1  0  0  0  0
 12 13  1  0  0  0  0
  7 14  1  0  0  0  0
 14 15  1  0  0  0  0
 15 16  2  0  0  0  0
 15 17  1  0  0  0  0
 17 18  1  0  0  0  0
 15 19  2  0  0  0  0
 19 20  1  0  0  0  0
  1 21  1  0  0  0  0
  1 22  1  0  0  0  0
  1 23  1  0  0  0  0
  2 24  1  0  0  0  0
  2 25  1  0  0  0  0
  6 26  1  0  0  0  0
  6 27  1  0  0  0  0
 12 28  1  0  0  0  0
 12 29  1  0  0  0  0
 13 30  1  0  0  0  0
 13 31  1  0  0  0  0
 13 32  1  0  0  0  0
 18 33  1  0  0  0  0
 18 34  1  0  0  0  0
 18 35  1  0  0  0  0
 20 36  1  0  0  0  0
 20 37  1  0  0  0  0
 20 38  1  0  0  0  0
M  END
