 xtb: 6.7.1 (edcfbbe)
          04092507313D

 38 37  0     0  0            999 V2000
    5.1254   -2.9838   -0.9102 C   0  0  0  0  0  0  0  0  0  0  0  0
    4.5261   -1.8872   -0.0437 C   0  0  0  0  0  0  0  0  0  0  0  0
    3.0870   -1.9141   -0.0924 O   0  0  0  0  0  0  0  0  0  0  0  0
    2.4841   -1.2847   -1.0779 C   0  0  0  0  0  0  0  0  0  0  0  0
    3.0485   -0.6942   -1.9743 O   0  0  0  0  0  0  0  0  0  0  0  0
    0.9739   -1.4145   -0.9801 C   0  0  0  0  0  0  0  0  0  0  0  0
    0.3577   -0.0596   -1.3033 C   0  0  0  0  0  0  0  0  0  0  0  0
    0.7144    0.2599   -2.2911 H   0  0  0  0  0  0  0  0  0  0  0  0
    0.8354    1.0012   -0.3288 C   0  0  0  0  0  0  0  0  0  0  0  0
    1.9105    0.9301    0.2205 O   0  0  0  0  0  0  0  0  0  0  0  0
    0.0085    2.0254   -0.2488 O   0  0  0  0  0  0  0  0  0  0  0  0
    0.4371    3.1883    0.4933 C   0  0  0  0  0  0  0  0  0  0  0  0
    0.2186    3.0365    1.9882 C   0  0  0  0  0  0  0  0  0  0  0  0
   -1.4489   -0.1061   -1.4678 S   0  0  0  0  0  0  0  0  0  0  0  0
   -2.0524    0.1056    0.5611 P   0  0  0  0  0  0  0  0  0  0  0  0
   -0.7848   -0.4479    1.9483 S   0  0  0  0  0  0  0  0  0  0  0  0
   -2.5903    1.5751    0.7703 O   0  0  0  0  0  0  0  0  0  0  0  0
   -3.5796    2.1591   -0.1012 C   0  0  0  0  0  0  0  0  0  0  0  0
   -3.4322   -0.7045    0.5648 O   0  0  0  0  0  0  0  0  0  0  0  0
   -3.4578   -2.1320    0.4535 C   0  0  0  0  0  0  0  0  0  0  0  0
    4.7351   -3.9521   -0.6093 H   0  0  0  0  0  0  0  0  0  0  0  0
    4.8798   -2.8091   -1.9551 H   0  0  0  0  0  0  0  0  0  0  0  0
    6.2043   -2.9800   -0.7958 H   0  0  0  0  0  0  0  0  0  0  0  0
    4.8626   -0.8998   -0.3730 H   0  0  0  0  0  0  0  0  0  0  0  0
    4.7626   -2.0348    1.0101 H   0  0  0  0  0  0  0  0  0  0  0  0
    0.7142   -1.7461    0.0258 H   0  0  0  0  0  0  0  0  0  0  0  0
    0.6390   -2.1514   -1.7115 H   0  0  0  0  0  0  0  0  0  0  0  0
    1.4970    3.3498    0.2765 H   0  0  0  0  0  0  0  0  0  0  0  0
   -0.1676    3.9965    0.0817 H   0  0  0  0  0  0  0  0  0  0  0  0
    0.8234    2.2194    2.3766 H   0  0  0  0  0  0  0  0  0  0  0  0
    0.5076    3.9571    2.4841 H   0  0  0  0  0  0  0  0  0  0  0  0
   -0.8264    2.8237    2.2001 H   0  0  0  0  0  0  0  0  0  0  0  0
   -4.5174    1.6145   -0.0133 H   0  0  0  0  0  0  0  0  0  0  0  0
   -3.2264    2.1342   -1.1320 H   0  0  0  0  0  0  0  0  0  0  0  0
   -3.6932    3.1836    0.2432 H   0  0  0  0  0  0  0  0  0  0  0  0
   -3.2136   -2.4276   -0.5665 H   0  0  0  0  0  0  0  0  0  0  0  0
   -4.4731   -2.4268    0.7057 H   0  0  0  0  0  0  0  0  0  0  0  0
   -2.7481   -2.5760    1.1531 H   0  0  0  0  0  0  0  0  0  0  0  0
  1  2  1  0  0  0  0
  2  3  1  0  0  0  0
  3  4  1  0  0  0  0
  4  5  2  0  0  0  0
  4  6  1  0  0  0  0
  6  7  1  0  0  0  0
  7  8  1  0  0  0  0
  7  9  1  0  0  0  0
  9 10  2  0  0  0  0
  9 11  1  0  0  0  0
 11 12  1  0  0  0  0
 12 13  1  0  0  0  0
  7 14  1  0  0  0  0
 14 15  1  0  0  0  0
 15 16  2  0  0  0  0
 15 17  2  0  0  0  0
 17 18  1  0  0  0  0
 15 19  1  0  0  0  0
 19 20  1  0  0  0  0
  1 21  1  0  0  0  0
  1 22  1  0  0  0  0
  1 23  1  0  0  0  0
  2 24  1  0  0  0  0
  2 25  1  0  0  0  0
  6 26  1  0  0  0  0
  6 27  1  0  0  0  0
 12 28  1  0  0  0  0
 12 29  1  0  0  0  0
 13 30  1  0  0  0  0
 13 31  1  0  0  0  0
 13 32  1  0  0  0  0
 18 33  1  0  0  0  0
 18 34  1  0  0  0  0
 18 35  1  0  0  0  0
 20 36  1  0  0  0  0
 20 37  1  0  0  0  0
 20 38  1  0  0  0  0
M  END
