 xtb: 6.7.1 (edcfbbe)
          04092505203D

 41 40  0     0  0            999 V2000
    3.9447   -0.1008   -2.7815 C   0  0  0  0  0  0  0  0  0  0  0  0
    4.3054   -0.6047   -1.3982 C   0  0  0  0  0  0  0  0  0  0  0  0
    3.7425    0.2697   -0.3835 O   0  0  0  0  0  0  0  0  0  0  0  0
    2.5703   -0.1561    0.5828 P   0  0  0  0  0  0  0  0  0  0  0  0
    2.2321    1.2251    1.9224 S   0  0  0  0  0  0  0  0  0  0  0  0
    3.0731   -1.5587    1.1411 O   0  0  0  0  0  0  0  0  0  0  0  0
    2.5564   -2.1274    2.3577 C   0  0  0  0  0  0  0  0  0  0  0  0
    1.0888   -2.4852    2.2411 C   0  0  0  0  0  0  0  0  0  0  0  0
    0.9805   -0.7149   -0.7317 S   0  0  0  0  0  0  0  0  0  0  0  0
    0.4698    0.9697   -1.1588 C   0  0  0  0  0  0  0  0  0  0  0  0
   -0.6812    1.7007    0.0433 S   0  0  0  0  0  0  0  0  0  0  0  0
   -2.2608    0.3472   -0.3163 P   0  0  0  0  0  0  0  0  0  0  0  0
   -2.5175   -0.2513   -2.1688 S   0  0  0  0  0  0  0  0  0  0  0  0
   -3.5290    1.0293    0.3555 O   0  0  0  0  0  0  0  0  0  0  0  0
   -4.4068    1.9096   -0.3670 C   0  0  0  0  0  0  0  0  0  0  0  0
   -3.7377    3.2231   -0.7172 C   0  0  0  0  0  0  0  0  0  0  0  0
   -1.9049   -0.7770    0.7417 O   0  0  0  0  0  0  0  0  0  0  0  0
   -2.3957   -2.1287    0.6131 C   0  0  0  0  0  0  0  0  0  0  0  0
   -3.8991   -2.2021    0.7769 C   0  0  0  0  0  0  0  0  0  0  0  0
    4.4737   -0.6931   -3.5214 H   0  0  0  0  0  0  0  0  0  0  0  0
    2.8753   -0.1915   -2.9573 H   0  0  0  0  0  0  0  0  0  0  0  0
    4.2341    0.9413   -2.8858 H   0  0  0  0  0  0  0  0  0  0  0  0
    5.3828   -0.5670   -1.2311 H   0  0  0  0  0  0  0  0  0  0  0  0
    3.9432   -1.6214   -1.2359 H   0  0  0  0  0  0  0  0  0  0  0  0
    3.1766   -3.0108    2.5158 H   0  0  0  0  0  0  0  0  0  0  0  0
    2.7136   -1.4089    3.1679 H   0  0  0  0  0  0  0  0  0  0  0  0
    0.9227   -3.1185    1.3726 H   0  0  0  0  0  0  0  0  0  0  0  0
    0.7752   -3.0087    3.1387 H   0  0  0  0  0  0  0  0  0  0  0  0
    0.4936   -1.5778    2.1360 H   0  0  0  0  0  0  0  0  0  0  0  0
   -0.0227    0.9095   -2.1291 H   0  0  0  0  0  0  0  0  0  0  0  0
    1.3400    1.6229   -1.1916 H   0  0  0  0  0  0  0  0  0  0  0  0
   -4.7413    1.3957   -1.2742 H   0  0  0  0  0  0  0  0  0  0  0  0
   -5.2488    2.0545    0.3112 H   0  0  0  0  0  0  0  0  0  0  0  0
   -4.4713    3.8976   -1.1469 H   0  0  0  0  0  0  0  0  0  0  0  0
   -3.3064    3.6762    0.1723 H   0  0  0  0  0  0  0  0  0  0  0  0
   -2.9433    3.0553   -1.4431 H   0  0  0  0  0  0  0  0  0  0  0  0
   -2.0911   -2.5122   -0.3659 H   0  0  0  0  0  0  0  0  0  0  0  0
   -1.8755   -2.6714    1.4032 H   0  0  0  0  0  0  0  0  0  0  0  0
   -4.2110   -3.2418    0.7745 H   0  0  0  0  0  0  0  0  0  0  0  0
   -4.1983   -1.7344    1.7113 H   0  0  0  0  0  0  0  0  0  0  0  0
   -4.3876   -1.6845   -0.0481 H   0  0  0  0  0  0  0  0  0  0  0  0
  1  2  1  0  0  0  0
  2  3  1  0  0  0  0
  3  4  2  0  0  0  0
  4  5  2  0  0  0  0
  4  6  2  0  0  0  0
  6  7  1  0  0  0  0
  7  8  1  0  0  0  0
  4  9  1  0  0  0  0
  9 10  1  0  0  0  0
 10 11  1  0  0  0  0
 11 12  1  0  0  0  0
 12 13  2  0  0  0  0
 12 14  2  0  0  0  0
 14 15  1  0  0  0  0
 15 16  1  0  0  0  0
 12 17  2  0  0  0  0
 17 18  1  0  0  0  0
 18 19  1  0  0  0  0
  1 20  1  0  0  0  0
  1 21  1  0  0  0  0
  1 22  1  0  0  0  0
  2 23  1  0  0  0  0
  2 24  1  0  0  0  0
  7 25  1  0  0  0  0
  7 26  1  0  0  0  0
  8 27  1  0  0  0  0
  8 28  1  0  0  0  0
  8 29  1  0  0  0  0
 10 30  1  0  0  0  0
 10 31  1  0  0  0  0
 15 32  1  0  0  0  0
 15 33  1  0  0  0  0
 16 34  1  0  0  0  0
 16 35  1  0  0  0  0
 16 36  1  0  0  0  0
 18 37  1  0  0  0  0
 18 38  1  0  0  0  0
 19 39  1  0  0  0  0
 19 40  1  0  0  0  0
 19 41  1  0  0  0  0
M  END
