 xtb: 6.7.1 (edcfbbe)
          04092505203D

 41 40  0     0  0            999 V2000
    2.7552    1.1685   -3.1177 C   0  0  0  0  0  0  0  0  0  0  0  0
    2.8752    1.2376   -1.6106 C   0  0  0  0  0  0  0  0  0  0  0  0
    2.4317   -0.0277   -1.0734 O   0  0  0  0  0  0  0  0  0  0  0  0
    2.1220   -0.2152    0.4664 P   0  0  0  0  0  0  0  0  0  0  0  0
    1.0800    1.2104    1.3291 S   0  0  0  0  0  0  0  0  0  0  0  0
    3.5824   -0.3647    1.0794 O   0  0  0  0  0  0  0  0  0  0  0  0
    3.8391   -0.2548    2.4903 C   0  0  0  0  0  0  0  0  0  0  0  0
    3.2188   -1.3983    3.2663 C   0  0  0  0  0  0  0  0  0  0  0  0
    1.3992   -2.1881    0.4136 S   0  0  0  0  0  0  0  0  0  0  0  0
   -0.1843   -1.9229   -0.4280 C   0  0  0  0  0  0  0  0  0  0  0  0
   -1.4516   -1.1835    0.6513 S   0  0  0  0  0  0  0  0  0  0  0  0
   -2.0941    0.3699   -0.6623 P   0  0  0  0  0  0  0  0  0  0  0  0
   -0.7555    1.0973   -1.8872 S   0  0  0  0  0  0  0  0  0  0  0  0
   -2.9036    1.3397    0.2972 O   0  0  0  0  0  0  0  0  0  0  0  0
   -2.3699    2.1459    1.3629 C   0  0  0  0  0  0  0  0  0  0  0  0
   -1.8121    3.4529    0.8377 C   0  0  0  0  0  0  0  0  0  0  0  0
   -3.2636   -0.2394   -1.5249 O   0  0  0  0  0  0  0  0  0  0  0  0
   -4.4353   -0.8861   -0.9651 C   0  0  0  0  0  0  0  0  0  0  0  0
   -4.3674   -2.3822   -1.1992 C   0  0  0  0  0  0  0  0  0  0  0  0
    1.7106    1.0534   -3.3974 H   0  0  0  0  0  0  0  0  0  0  0  0
    3.1398    2.0874   -3.5474 H   0  0  0  0  0  0  0  0  0  0  0  0
    3.3220    0.3231   -3.4964 H   0  0  0  0  0  0  0  0  0  0  0  0
    2.2427    2.0313   -1.1989 H   0  0  0  0  0  0  0  0  0  0  0  0
    3.9086    1.3952   -1.2921 H   0  0  0  0  0  0  0  0  0  0  0  0
    4.9275   -0.2594    2.5597 H   0  0  0  0  0  0  0  0  0  0  0  0
    3.4457    0.7058    2.8389 H   0  0  0  0  0  0  0  0  0  0  0  0
    3.5356   -2.3521    2.8520 H   0  0  0  0  0  0  0  0  0  0  0  0
    3.5221   -1.3351    4.3063 H   0  0  0  0  0  0  0  0  0  0  0  0
    2.1321   -1.3365    3.2103 H   0  0  0  0  0  0  0  0  0  0  0  0
   -0.5195   -2.9105   -0.7332 H   0  0  0  0  0  0  0  0  0  0  0  0
   -0.0344   -1.2657   -1.2885 H   0  0  0  0  0  0  0  0  0  0  0  0
   -3.2261    2.3139    2.0188 H   0  0  0  0  0  0  0  0  0  0  0  0
   -1.5991    1.5848    1.8971 H   0  0  0  0  0  0  0  0  0  0  0  0
   -2.5642    3.9779    0.2549 H   0  0  0  0  0  0  0  0  0  0  0  0
   -1.5013    4.0694    1.6746 H   0  0  0  0  0  0  0  0  0  0  0  0
   -0.9459    3.2629    0.2069 H   0  0  0  0  0  0  0  0  0  0  0  0
   -4.5025   -0.6505    0.0987 H   0  0  0  0  0  0  0  0  0  0  0  0
   -5.2778   -0.4384   -1.4942 H   0  0  0  0  0  0  0  0  0  0  0  0
   -3.5592   -2.8228   -0.6208 H   0  0  0  0  0  0  0  0  0  0  0  0
   -5.3067   -2.8307   -0.8919 H   0  0  0  0  0  0  0  0  0  0  0  0
   -4.2013   -2.5851   -2.2535 H   0  0  0  0  0  0  0  0  0  0  0  0
  1  2  1  0  0  0  0
  2  3  1  0  0  0  0
  3  4  2  0  0  0  0
  4  5  2  0  0  0  0
  4  6  2  0  0  0  0
  6  7  1  0  0  0  0
  7  8  1  0  0  0  0
  4  9  1  0  0  0  0
  9 10  1  0  0  0  0
 10 11  1  0  0  0  0
 11 12  1  0  0  0  0
 12 13  2  0  0  0  0
 12 14  2  0  0  0  0
 14 15  1  0  0  0  0
 15 16  1  0  0  0  0
 12 17  2  0  0  0  0
 17 18  1  0  0  0  0
 18 19  1  0  0  0  0
  1 20  1  0  0  0  0
  1 21  1  0  0  0  0
  1 22  1  0  0  0  0
  2 23  1  0  0  0  0
  2 24  1  0  0  0  0
  7 25  1  0  0  0  0
  7 26  1  0  0  0  0
  8 27  1  0  0  0  0
  8 28  1  0  0  0  0
  8 29  1  0  0  0  0
 10 30  1  0  0  0  0
 10 31  1  0  0  0  0
 15 32  1  0  0  0  0
 15 33  1  0  0  0  0
 16 34  1  0  0  0  0
 16 35  1  0  0  0  0
 16 36  1  0  0  0  0
 18 37  1  0  0  0  0
 18 38  1  0  0  0  0
 19 39  1  0  0  0  0
 19 40  1  0  0  0  0
 19 41  1  0  0  0  0
M  END
