 xtb: 6.7.1 (edcfbbe)
          04092505213D

 41 40  0     0  0            999 V2000
    5.5430    0.9047   -0.2067 C   0  0  0  0  0  0  0  0  0  0  0  0
    4.2507    1.3962   -0.8295 C   0  0  0  0  0  0  0  0  0  0  0  0
    3.3064    0.3165   -0.9885 O   0  0  0  0  0  0  0  0  0  0  0  0
    2.2290   -0.0507    0.1171 P   0  0  0  0  0  0  0  0  0  0  0  0
    2.8882   -0.4709    1.9182 S   0  0  0  0  0  0  0  0  0  0  0  0
    1.4244   -1.2025   -0.6044 O   0  0  0  0  0  0  0  0  0  0  0  0
    1.6745   -2.5981   -0.3523 C   0  0  0  0  0  0  0  0  0  0  0  0
    3.0192   -3.0241   -0.9004 C   0  0  0  0  0  0  0  0  0  0  0  0
    0.8742    1.5640   -0.0004 S   0  0  0  0  0  0  0  0  0  0  0  0
    0.0071    1.2211    1.5529 C   0  0  0  0  0  0  0  0  0  0  0  0
   -0.9128   -0.3479    1.5358 S   0  0  0  0  0  0  0  0  0  0  0  0
   -2.0774   -0.0808   -0.2225 P   0  0  0  0  0  0  0  0  0  0  0  0
   -1.3952   -0.5409   -1.9927 S   0  0  0  0  0  0  0  0  0  0  0  0
   -2.4946    1.4462   -0.0024 O   0  0  0  0  0  0  0  0  0  0  0  0
   -2.8173    2.3079   -1.1114 C   0  0  0  0  0  0  0  0  0  0  0  0
   -4.1998    2.0045   -1.6510 C   0  0  0  0  0  0  0  0  0  0  0  0
   -3.3461   -0.9778    0.0911 O   0  0  0  0  0  0  0  0  0  0  0  0
   -4.1788   -0.7887    1.2639 C   0  0  0  0  0  0  0  0  0  0  0  0
   -5.6058   -1.1290    0.8854 C   0  0  0  0  0  0  0  0  0  0  0  0
    5.9674    0.1055   -0.8080 H   0  0  0  0  0  0  0  0  0  0  0  0
    6.2485    1.7276   -0.1542 H   0  0  0  0  0  0  0  0  0  0  0  0
    5.3604    0.5298    0.7980 H   0  0  0  0  0  0  0  0  0  0  0  0
    4.4126    1.7646   -1.8443 H   0  0  0  0  0  0  0  0  0  0  0  0
    3.7965    2.1857   -0.2236 H   0  0  0  0  0  0  0  0  0  0  0  0
    1.6180   -2.7714    0.7279 H   0  0  0  0  0  0  0  0  0  0  0  0
    0.8470   -3.1044   -0.8526 H   0  0  0  0  0  0  0  0  0  0  0  0
    3.8127   -2.5003   -0.3678 H   0  0  0  0  0  0  0  0  0  0  0  0
    3.1438   -4.0935   -0.7629 H   0  0  0  0  0  0  0  0  0  0  0  0
    3.0845   -2.7812   -1.9578 H   0  0  0  0  0  0  0  0  0  0  0  0
   -0.6776    2.0470    1.7237 H   0  0  0  0  0  0  0  0  0  0  0  0
    0.7320    1.1272    2.3627 H   0  0  0  0  0  0  0  0  0  0  0  0
   -2.7501    3.3148   -0.6974 H   0  0  0  0  0  0  0  0  0  0  0  0
   -2.0594    2.1748   -1.8897 H   0  0  0  0  0  0  0  0  0  0  0  0
   -4.4273    2.6869   -2.4637 H   0  0  0  0  0  0  0  0  0  0  0  0
   -4.2269    0.9826   -2.0290 H   0  0  0  0  0  0  0  0  0  0  0  0
   -4.9455    2.1157   -0.8680 H   0  0  0  0  0  0  0  0  0  0  0  0
   -3.8006   -1.4559    2.0415 H   0  0  0  0  0  0  0  0  0  0  0  0
   -4.0890    0.2471    1.6001 H   0  0  0  0  0  0  0  0  0  0  0  0
   -5.6561   -2.1471    0.5104 H   0  0  0  0  0  0  0  0  0  0  0  0
   -6.2380   -1.0369    1.7627 H   0  0  0  0  0  0  0  0  0  0  0  0
   -5.9632   -0.4555    0.1112 H   0  0  0  0  0  0  0  0  0  0  0  0
  1  2  1  0  0  0  0
  2  3  1  0  0  0  0
  3  4  2  0  0  0  0
  4  5  2  0  0  0  0
  4  6  2  0  0  0  0
  6  7  1  0  0  0  0
  7  8  1  0  0  0  0
  4  9  1  0  0  0  0
  9 10  1  0  0  0  0
 10 11  1  0  0  0  0
 11 12  1  0  0  0  0
 12 13  2  0  0  0  0
 12 14  1  0  0  0  0
 14 15  1  0  0  0  0
 15 16  1  0  0  0  0
 12 17  2  0  0  0  0
 17 18  1  0  0  0  0
 18 19  1  0  0  0  0
  1 20  1  0  0  0  0
  1 21  1  0  0  0  0
  1 22  1  0  0  0  0
  2 23  1  0  0  0  0
  2 24  1  0  0  0  0
  7 25  1  0  0  0  0
  7 26  1  0  0  0  0
  8 27  1  0  0  0  0
  8 28  1  0  0  0  0
  8 29  1  0  0  0  0
 10 30  1  0  0  0  0
 10 31  1  0  0  0  0
 15 32  1  0  0  0  0
 15 33  1  0  0  0  0
 16 34  1  0  0  0  0
 16 35  1  0  0  0  0
 16 36  1  0  0  0  0
 18 37  1  0  0  0  0
 18 38  1  0  0  0  0
 19 39  1  0  0  0  0
 19 40  1  0  0  0  0
 19 41  1  0  0  0  0
M  END
