 xtb: 6.7.1 (edcfbbe)
          04092505203D

 41 40  0     0  0            999 V2000
    4.3878    0.9326   -2.1757 C   0  0  0  0  0  0  0  0  0  0  0  0
    3.1144    0.1164   -2.0913 C   0  0  0  0  0  0  0  0  0  0  0  0
    2.2321    0.6554   -1.0779 O   0  0  0  0  0  0  0  0  0  0  0  0
    2.1099    0.0966    0.3882 P   0  0  0  0  0  0  0  0  0  0  0  0
    0.8863    1.2290    1.4069 S   0  0  0  0  0  0  0  0  0  0  0  0
    3.6201    0.0523    0.8778 O   0  0  0  0  0  0  0  0  0  0  0  0
    4.1129   -0.7391    1.9764 C   0  0  0  0  0  0  0  0  0  0  0  0
    3.3097   -0.5520    3.2458 C   0  0  0  0  0  0  0  0  0  0  0  0
    1.6625   -1.9846    0.1974 S   0  0  0  0  0  0  0  0  0  0  0  0
    0.0377   -1.8689   -0.5816 C   0  0  0  0  0  0  0  0  0  0  0  0
   -1.2851   -1.3933    0.5772 S   0  0  0  0  0  0  0  0  0  0  0  0
   -2.1859    0.1210   -0.6250 P   0  0  0  0  0  0  0  0  0  0  0  0
   -1.0053    1.0704   -1.8648 S   0  0  0  0  0  0  0  0  0  0  0  0
   -3.0777    0.9267    0.4077 O   0  0  0  0  0  0  0  0  0  0  0  0
   -2.6157    1.7623    1.4843 C   0  0  0  0  0  0  0  0  0  0  0  0
   -2.2419    3.1443    0.9892 C   0  0  0  0  0  0  0  0  0  0  0  0
   -3.2797   -0.6348   -1.4730 O   0  0  0  0  0  0  0  0  0  0  0  0
   -4.3410   -1.4334   -0.8938 C   0  0  0  0  0  0  0  0  0  0  0  0
   -5.6250   -0.6347   -0.8013 C   0  0  0  0  0  0  0  0  0  0  0  0
    4.1472    1.9735   -2.3746 H   0  0  0  0  0  0  0  0  0  0  0  0
    4.9360    0.8730   -1.2392 H   0  0  0  0  0  0  0  0  0  0  0  0
    5.0046    0.5460   -2.9809 H   0  0  0  0  0  0  0  0  0  0  0  0
    3.3293   -0.9307   -1.8589 H   0  0  0  0  0  0  0  0  0  0  0  0
    2.5366    0.1821   -3.0158 H   0  0  0  0  0  0  0  0  0  0  0  0
    4.1066   -1.7877    1.6663 H   0  0  0  0  0  0  0  0  0  0  0  0
    5.1407   -0.3935    2.1006 H   0  0  0  0  0  0  0  0  0  0  0  0
    2.2917   -0.9131    3.1034 H   0  0  0  0  0  0  0  0  0  0  0  0
    3.7737   -1.1116    4.0516 H   0  0  0  0  0  0  0  0  0  0  0  0
    3.2647    0.5007    3.5156 H   0  0  0  0  0  0  0  0  0  0  0  0
   -0.1763   -2.8637   -0.9634 H   0  0  0  0  0  0  0  0  0  0  0  0
    0.0656   -1.1264   -1.3846 H   0  0  0  0  0  0  0  0  0  0  0  0
   -3.4654    1.8009    2.1684 H   0  0  0  0  0  0  0  0  0  0  0  0
   -1.7641    1.2883    1.9787 H   0  0  0  0  0  0  0  0  0  0  0  0
   -1.3747    3.0850    0.3340 H   0  0  0  0  0  0  0  0  0  0  0  0
   -3.0689    3.5873    0.4406 H   0  0  0  0  0  0  0  0  0  0  0  0
   -1.9891    3.7700    1.8388 H   0  0  0  0  0  0  0  0  0  0  0  0
   -4.4484   -2.2783   -1.5764 H   0  0  0  0  0  0  0  0  0  0  0  0
   -4.0210   -1.7894    0.0897 H   0  0  0  0  0  0  0  0  0  0  0  0
   -5.8990   -0.2582   -1.7830 H   0  0  0  0  0  0  0  0  0  0  0  0
   -6.4167   -1.2773   -0.4289 H   0  0  0  0  0  0  0  0  0  0  0  0
   -5.4984    0.2078   -0.1271 H   0  0  0  0  0  0  0  0  0  0  0  0
  1  2  1  0  0  0  0
  2  3  1  0  0  0  0
  3  4  2  0  0  0  0
  4  5  2  0  0  0  0
  4  6  2  0  0  0  0
  6  7  1  0  0  0  0
  7  8  1  0  0  0  0
  4  9  1  0  0  0  0
  9 10  1  0  0  0  0
 10 11  1  0  0  0  0
 11 12  1  0  0  0  0
 12 13  2  0  0  0  0
 12 14  2  0  0  0  0
 14 15  1  0  0  0  0
 15 16  1  0  0  0  0
 12 17  2  0  0  0  0
 17 18  1  0  0  0  0
 18 19  1  0  0  0  0
  1 20  1  0  0  0  0
  1 21  1  0  0  0  0
  1 22  1  0  0  0  0
  2 23  1  0  0  0  0
  2 24  1  0  0  0  0
  7 25  1  0  0  0  0
  7 26  1  0  0  0  0
  8 27  1  0  0  0  0
  8 28  1  0  0  0  0
  8 29  1  0  0  0  0
 10 30  1  0  0  0  0
 10 31  1  0  0  0  0
 15 32  1  0  0  0  0
 15 33  1  0  0  0  0
 16 34  1  0  0  0  0
 16 35  1  0  0  0  0
 16 36  1  0  0  0  0
 18 37  1  0  0  0  0
 18 38  1  0  0  0  0
 19 39  1  0  0  0  0
 19 40  1  0  0  0  0
 19 41  1  0  0  0  0
M  END
