 xtb: 6.7.1 (edcfbbe)
          04092505213D

 41 40  0     0  0            999 V2000
    1.0384   -2.9544    0.8433 C   0  0  0  0  0  0  0  0  0  0  0  0
    2.0801   -1.9910    1.3763 C   0  0  0  0  0  0  0  0  0  0  0  0
    1.7662   -0.6329    1.0076 O   0  0  0  0  0  0  0  0  0  0  0  0
    2.4543    0.1280   -0.2185 P   0  0  0  0  0  0  0  0  0  0  0  0
    3.1474   -1.0227   -1.6365 S   0  0  0  0  0  0  0  0  0  0  0  0
    3.6370    0.9984    0.3839 O   0  0  0  0  0  0  0  0  0  0  0  0
    3.5016    2.2134    1.1566 C   0  0  0  0  0  0  0  0  0  0  0  0
    2.7289    2.0044    2.4422 C   0  0  0  0  0  0  0  0  0  0  0  0
    0.9684    1.5515   -0.7020 S   0  0  0  0  0  0  0  0  0  0  0  0
    0.1958    0.6288   -2.0533 C   0  0  0  0  0  0  0  0  0  0  0  0
   -0.6081   -0.9011   -1.5096 S   0  0  0  0  0  0  0  0  0  0  0  0
   -1.9753   -0.0066   -0.1675 P   0  0  0  0  0  0  0  0  0  0  0  0
   -2.7299    1.7200   -0.7224 S   0  0  0  0  0  0  0  0  0  0  0  0
   -1.1693   -0.0367    1.1912 O   0  0  0  0  0  0  0  0  0  0  0  0
   -1.4266    0.9018    2.2553 C   0  0  0  0  0  0  0  0  0  0  0  0
   -2.7733    0.6529    2.9002 C   0  0  0  0  0  0  0  0  0  0  0  0
   -3.0351   -1.1628    0.0779 O   0  0  0  0  0  0  0  0  0  0  0  0
   -4.0649   -1.4630   -0.8853 C   0  0  0  0  0  0  0  0  0  0  0  0
   -5.1423   -2.2630   -0.1812 C   0  0  0  0  0  0  0  0  0  0  0  0
    1.0909   -3.0032   -0.2423 H   0  0  0  0  0  0  0  0  0  0  0  0
    1.2231   -3.9424    1.2526 H   0  0  0  0  0  0  0  0  0  0  0  0
    0.0430   -2.6232    1.1299 H   0  0  0  0  0  0  0  0  0  0  0  0
    3.0744   -2.2468    0.9980 H   0  0  0  0  0  0  0  0  0  0  0  0
    2.0914   -1.9840    2.4678 H   0  0  0  0  0  0  0  0  0  0  0  0
    4.5357    2.5042    1.3486 H   0  0  0  0  0  0  0  0  0  0  0  0
    3.0156    2.9651    0.5291 H   0  0  0  0  0  0  0  0  0  0  0  0
    1.7061    1.7084    2.2170 H   0  0  0  0  0  0  0  0  0  0  0  0
    3.1985    1.2306    3.0441 H   0  0  0  0  0  0  0  0  0  0  0  0
    2.7129    2.9346    3.0014 H   0  0  0  0  0  0  0  0  0  0  0  0
    0.9538    0.3368   -2.7794 H   0  0  0  0  0  0  0  0  0  0  0  0
   -0.5444    1.2976   -2.4917 H   0  0  0  0  0  0  0  0  0  0  0  0
   -0.6049    0.7371    2.9540 H   0  0  0  0  0  0  0  0  0  0  0  0
   -1.3720    1.9160    1.8460 H   0  0  0  0  0  0  0  0  0  0  0  0
   -2.9005    1.3250    3.7430 H   0  0  0  0  0  0  0  0  0  0  0  0
   -3.5656    0.8388    2.1758 H   0  0  0  0  0  0  0  0  0  0  0  0
   -2.8432   -0.3766    3.2410 H   0  0  0  0  0  0  0  0  0  0  0  0
   -4.4577   -0.5204   -1.2814 H   0  0  0  0  0  0  0  0  0  0  0  0
   -3.6131   -2.0329   -1.7018 H   0  0  0  0  0  0  0  0  0  0  0  0
   -4.7140   -3.1673    0.2412 H   0  0  0  0  0  0  0  0  0  0  0  0
   -5.5844   -1.6753    0.6182 H   0  0  0  0  0  0  0  0  0  0  0  0
   -5.9125   -2.5298   -0.8973 H   0  0  0  0  0  0  0  0  0  0  0  0
  1  2  1  0  0  0  0
  2  3  1  0  0  0  0
  3  4  1  0  0  0  0
  4  5  2  0  0  0  0
  4  6  2  0  0  0  0
  6  7  1  0  0  0  0
  7  8  1  0  0  0  0
  4  9  1  0  0  0  0
  9 10  1  0  0  0  0
 10 11  1  0  0  0  0
 11 12  1  0  0  0  0
 12 13  2  0  0  0  0
 12 14  2  0  0  0  0
 14 15  1  0  0  0  0
 15 16  1  0  0  0  0
 12 17  2  0  0  0  0
 17 18  1  0  0  0  0
 18 19  1  0  0  0  0
  1 20  1  0  0  0  0
  1 21  1  0  0  0  0
  1 22  1  0  0  0  0
  2 23  1  0  0  0  0
  2 24  1  0  0  0  0
  7 25  1  0  0  0  0
  7 26  1  0  0  0  0
  8 27  1  0  0  0  0
  8 28  1  0  0  0  0
  8 29  1  0  0  0  0
 10 30  1  0  0  0  0
 10 31  1  0  0  0  0
 15 32  1  0  0  0  0
 15 33  1  0  0  0  0
 16 34  1  0  0  0  0
 16 35  1  0  0  0  0
 16 36  1  0  0  0  0
 18 37  1  0  0  0  0
 18 38  1  0  0  0  0
 19 39  1  0  0  0  0
 19 40  1  0  0  0  0
 19 41  1  0  0  0  0
M  END
