 xtb: 6.7.1 (edcfbbe)
          04092505213D

 41 40  0     0  0            999 V2000
    4.2025    1.1437   -1.7316 C   0  0  0  0  0  0  0  0  0  0  0  0
    2.8530    0.4594   -1.6723 C   0  0  0  0  0  0  0  0  0  0  0  0
    2.1306    0.8492   -0.4787 O   0  0  0  0  0  0  0  0  0  0  0  0
    2.1218    0.0160    0.8608 P   0  0  0  0  0  0  0  0  0  0  0  0
    1.0463    0.8838    2.2442 S   0  0  0  0  0  0  0  0  0  0  0  0
    3.6671   -0.1585    1.1843 O   0  0  0  0  0  0  0  0  0  0  0  0
    4.1501   -0.5373    2.4860 C   0  0  0  0  0  0  0  0  0  0  0  0
    3.7330   -1.9417    2.8708 C   0  0  0  0  0  0  0  0  0  0  0  0
    1.4982   -1.9441    0.2910 S   0  0  0  0  0  0  0  0  0  0  0  0
   -0.2571   -1.5748    0.1719 C   0  0  0  0  0  0  0  0  0  0  0  0
   -0.6539   -0.7208   -1.4067 S   0  0  0  0  0  0  0  0  0  0  0  0
   -2.4028    0.2837   -0.7487 P   0  0  0  0  0  0  0  0  0  0  0  0
   -3.3959    1.2143   -2.1556 S   0  0  0  0  0  0  0  0  0  0  0  0
   -1.9600    1.1515    0.5003 O   0  0  0  0  0  0  0  0  0  0  0  0
   -1.7949    2.5770    0.4078 C   0  0  0  0  0  0  0  0  0  0  0  0
   -0.6333    2.9642   -0.4846 C   0  0  0  0  0  0  0  0  0  0  0  0
   -3.1688   -0.8361    0.0804 O   0  0  0  0  0  0  0  0  0  0  0  0
   -3.8074   -1.9462   -0.5852 C   0  0  0  0  0  0  0  0  0  0  0  0
   -5.2711   -1.6513   -0.8492 C   0  0  0  0  0  0  0  0  0  0  0  0
    4.8286    0.8156   -0.9063 H   0  0  0  0  0  0  0  0  0  0  0  0
    4.6849    0.8911   -2.6706 H   0  0  0  0  0  0  0  0  0  0  0  0
    4.0773    2.2214   -1.6718 H   0  0  0  0  0  0  0  0  0  0  0  0
    2.9581   -0.6290   -1.6843 H   0  0  0  0  0  0  0  0  0  0  0  0
    2.2062    0.7714   -2.4948 H   0  0  0  0  0  0  0  0  0  0  0  0
    5.2338   -0.4502    2.3958 H   0  0  0  0  0  0  0  0  0  0  0  0
    3.7787    0.1888    3.2155 H   0  0  0  0  0  0  0  0  0  0  0  0
    3.9948   -2.6442    2.0836 H   0  0  0  0  0  0  0  0  0  0  0  0
    4.2370   -2.2247    3.7894 H   0  0  0  0  0  0  0  0  0  0  0  0
    2.6572   -1.9812    3.0336 H   0  0  0  0  0  0  0  0  0  0  0  0
   -0.5508   -0.9286    1.0019 H   0  0  0  0  0  0  0  0  0  0  0  0
   -0.7788   -2.5276    0.1987 H   0  0  0  0  0  0  0  0  0  0  0  0
   -2.7268    3.0099    0.0316 H   0  0  0  0  0  0  0  0  0  0  0  0
   -1.6256    2.8856    1.4407 H   0  0  0  0  0  0  0  0  0  0  0  0
    0.2905    2.5192   -0.1216 H   0  0  0  0  0  0  0  0  0  0  0  0
   -0.8165    2.6195   -1.5024 H   0  0  0  0  0  0  0  0  0  0  0  0
   -0.5298    4.0444   -0.4898 H   0  0  0  0  0  0  0  0  0  0  0  0
   -3.2793   -2.1631   -1.5201 H   0  0  0  0  0  0  0  0  0  0  0  0
   -3.6943   -2.7848    0.1052 H   0  0  0  0  0  0  0  0  0  0  0  0
   -5.3692   -0.8148   -1.5375 H   0  0  0  0  0  0  0  0  0  0  0  0
   -5.7393   -2.5273   -1.2864 H   0  0  0  0  0  0  0  0  0  0  0  0
   -5.7728   -1.3991    0.0807 H   0  0  0  0  0  0  0  0  0  0  0  0
  1  2  1  0  0  0  0
  2  3  1  0  0  0  0
  3  4  2  0  0  0  0
  4  5  2  0  0  0  0
  4  6  2  0  0  0  0
  6  7  1  0  0  0  0
  7  8  1  0  0  0  0
  4  9  1  0  0  0  0
  9 10  1  0  0  0  0
 10 11  1  0  0  0  0
 11 12  1  0  0  0  0
 12 13  2  0  0  0  0
 12 14  2  0  0  0  0
 14 15  1  0  0  0  0
 15 16  1  0  0  0  0
 12 17  2  0  0  0  0
 17 18  1  0  0  0  0
 18 19  1  0  0  0  0
  1 20  1  0  0  0  0
  1 21  1  0  0  0  0
  1 22  1  0  0  0  0
  2 23  1  0  0  0  0
  2 24  1  0  0  0  0
  7 25  1  0  0  0  0
  7 26  1  0  0  0  0
  8 27  1  0  0  0  0
  8 28  1  0  0  0  0
  8 29  1  0  0  0  0
 10 30  1  0  0  0  0
 10 31  1  0  0  0  0
 15 32  1  0  0  0  0
 15 33  1  0  0  0  0
 16 34  1  0  0  0  0
 16 35  1  0  0  0  0
 16 36  1  0  0  0  0
 18 37  1  0  0  0  0
 18 38  1  0  0  0  0
 19 39  1  0  0  0  0
 19 40  1  0  0  0  0
 19 41  1  0  0  0  0
M  END
