 xtb: 6.7.1 (edcfbbe)
          04092505203D

 41 40  0     0  0            999 V2000
    2.9189   -1.4079   -3.1924 C   0  0  0  0  0  0  0  0  0  0  0  0
    3.7469   -0.4846   -2.3224 C   0  0  0  0  0  0  0  0  0  0  0  0
    3.3725   -0.5891   -0.9414 O   0  0  0  0  0  0  0  0  0  0  0  0
    1.9568   -0.0789   -0.4058 P   0  0  0  0  0  0  0  0  0  0  0  0
    1.4662    1.6286   -1.2507 S   0  0  0  0  0  0  0  0  0  0  0  0
    2.2072   -0.0814    1.1566 O   0  0  0  0  0  0  0  0  0  0  0  0
    2.8998    1.0106    1.8021 C   0  0  0  0  0  0  0  0  0  0  0  0
    2.6409    0.9096    3.2901 C   0  0  0  0  0  0  0  0  0  0  0  0
    0.7794   -1.8276   -0.5604 S   0  0  0  0  0  0  0  0  0  0  0  0
   -0.1925   -1.9003    0.9823 C   0  0  0  0  0  0  0  0  0  0  0  0
   -1.9651   -1.6436    0.7308 S   0  0  0  0  0  0  0  0  0  0  0  0
   -1.8630    0.4533    0.4105 P   0  0  0  0  0  0  0  0  0  0  0  0
   -0.6805    1.4238    1.6262 S   0  0  0  0  0  0  0  0  0  0  0  0
   -3.3813    0.9220    0.4176 O   0  0  0  0  0  0  0  0  0  0  0  0
   -4.0868    1.2816    1.6205 C   0  0  0  0  0  0  0  0  0  0  0  0
   -4.2823    0.1024    2.5509 C   0  0  0  0  0  0  0  0  0  0  0  0
   -1.4842    0.6171   -1.1102 O   0  0  0  0  0  0  0  0  0  0  0  0
   -2.3231    0.1057   -2.1820 C   0  0  0  0  0  0  0  0  0  0  0  0
   -1.4292   -0.4626   -3.2641 C   0  0  0  0  0  0  0  0  0  0  0  0
    2.9944   -2.4325   -2.8378 H   0  0  0  0  0  0  0  0  0  0  0  0
    1.8732   -1.1008   -3.1529 H   0  0  0  0  0  0  0  0  0  0  0  0
    3.2659   -1.3503   -4.2188 H   0  0  0  0  0  0  0  0  0  0  0  0
    3.6207    0.5573   -2.6359 H   0  0  0  0  0  0  0  0  0  0  0  0
    4.8040   -0.7524   -2.3327 H   0  0  0  0  0  0  0  0  0  0  0  0
    3.9626    0.9181    1.5659 H   0  0  0  0  0  0  0  0  0  0  0  0
    2.5194    1.9532    1.3933 H   0  0  0  0  0  0  0  0  0  0  0  0
    1.5792    1.0371    3.4880 H   0  0  0  0  0  0  0  0  0  0  0  0
    2.9614   -0.0607    3.6581 H   0  0  0  0  0  0  0  0  0  0  0  0
    3.1938    1.6921    3.7989 H   0  0  0  0  0  0  0  0  0  0  0  0
    0.1875   -1.1544    1.6794 H   0  0  0  0  0  0  0  0  0  0  0  0
   -0.0812   -2.9078    1.3736 H   0  0  0  0  0  0  0  0  0  0  0  0
   -3.5294    2.0797    2.1205 H   0  0  0  0  0  0  0  0  0  0  0  0
   -5.0382    1.6683    1.2525 H   0  0  0  0  0  0  0  0  0  0  0  0
   -4.7268   -0.7332    2.0162 H   0  0  0  0  0  0  0  0  0  0  0  0
   -3.3247   -0.2119    2.9624 H   0  0  0  0  0  0  0  0  0  0  0  0
   -4.9348    0.3979    3.3663 H   0  0  0  0  0  0  0  0  0  0  0  0
   -2.9945   -0.6551   -1.7737 H   0  0  0  0  0  0  0  0  0  0  0  0
   -2.9079    0.9518   -2.5465 H   0  0  0  0  0  0  0  0  0  0  0  0
   -0.9082   -1.3463   -2.9025 H   0  0  0  0  0  0  0  0  0  0  0  0
   -2.0365   -0.7303   -4.1225 H   0  0  0  0  0  0  0  0  0  0  0  0
   -0.6950    0.2833   -3.5595 H   0  0  0  0  0  0  0  0  0  0  0  0
  1  2  1  0  0  0  0
  2  3  1  0  0  0  0
  3  4  2  0  0  0  0
  4  5  2  0  0  0  0
  4  6  2  0  0  0  0
  6  7  1  0  0  0  0
  7  8  1  0  0  0  0
  4  9  1  0  0  0  0
  9 10  1  0  0  0  0
 10 11  1  0  0  0  0
 11 12  1  0  0  0  0
 12 13  2  0  0  0  0
 12 14  2  0  0  0  0
 14 15  1  0  0  0  0
 15 16  1  0  0  0  0
 12 17  2  0  0  0  0
 17 18  1  0  0  0  0
 18 19  1  0  0  0  0
  1 20  1  0  0  0  0
  1 21  1  0  0  0  0
  1 22  1  0  0  0  0
  2 23  1  0  0  0  0
  2 24  1  0  0  0  0
  7 25  1  0  0  0  0
  7 26  1  0  0  0  0
  8 27  1  0  0  0  0
  8 28  1  0  0  0  0
  8 29  1  0  0  0  0
 10 30  1  0  0  0  0
 10 31  1  0  0  0  0
 15 32  1  0  0  0  0
 15 33  1  0  0  0  0
 16 34  1  0  0  0  0
 16 35  1  0  0  0  0
 16 36  1  0  0  0  0
 18 37  1  0  0  0  0
 18 38  1  0  0  0  0
 19 39  1  0  0  0  0
 19 40  1  0  0  0  0
 19 41  1  0  0  0  0
M  END
