 xtb: 6.7.1 (edcfbbe)
          04092505213D

 41 40  0     0  0            999 V2000
    6.0951   -0.1955   -0.6699 C   0  0  0  0  0  0  0  0  0  0  0  0
    4.7273    0.4459   -0.7867 C   0  0  0  0  0  0  0  0  0  0  0  0
    3.7892   -0.3736   -0.0606 O   0  0  0  0  0  0  0  0  0  0  0  0
    2.3959    0.2095    0.4277 P   0  0  0  0  0  0  0  0  0  0  0  0
    2.5202    1.8970    1.4080 S   0  0  0  0  0  0  0  0  0  0  0  0
    1.8187   -0.9420    1.3297 O   0  0  0  0  0  0  0  0  0  0  0  0
    1.3114   -2.2296    0.9021 C   0  0  0  0  0  0  0  0  0  0  0  0
    2.3028   -3.0141    0.0724 C   0  0  0  0  0  0  0  0  0  0  0  0
    1.2439    0.2796   -1.3673 S   0  0  0  0  0  0  0  0  0  0  0  0
    0.0435    1.5054   -0.7833 C   0  0  0  0  0  0  0  0  0  0  0  0
   -0.9308    0.9494    0.6397 S   0  0  0  0  0  0  0  0  0  0  0  0
   -2.3931   -0.1558   -0.4756 P   0  0  0  0  0  0  0  0  0  0  0  0
   -1.7049   -1.7186   -1.4325 S   0  0  0  0  0  0  0  0  0  0  0  0
   -3.0904    0.8664   -1.4492 O   0  0  0  0  0  0  0  0  0  0  0  0
   -4.1568    1.7866   -1.0992 C   0  0  0  0  0  0  0  0  0  0  0  0
   -3.7138    2.8543   -0.1216 C   0  0  0  0  0  0  0  0  0  0  0  0
   -3.5098   -0.4586    0.6080 O   0  0  0  0  0  0  0  0  0  0  0  0
   -3.3291   -1.4949    1.5959 C   0  0  0  0  0  0  0  0  0  0  0  0
   -4.6931   -1.8488    2.1526 C   0  0  0  0  0  0  0  0  0  0  0  0
    6.8161    0.4027   -1.2172 H   0  0  0  0  0  0  0  0  0  0  0  0
    6.3923   -0.2501    0.3736 H   0  0  0  0  0  0  0  0  0  0  0  0
    6.0719   -1.1996   -1.0832 H   0  0  0  0  0  0  0  0  0  0  0  0
    4.3970    0.4990   -1.8276 H   0  0  0  0  0  0  0  0  0  0  0  0
    4.7186    1.4528   -0.3553 H   0  0  0  0  0  0  0  0  0  0  0  0
    1.0872   -2.7298    1.8453 H   0  0  0  0  0  0  0  0  0  0  0  0
    0.3850   -2.0701    0.3411 H   0  0  0  0  0  0  0  0  0  0  0  0
    2.4643   -2.5233   -0.8853 H   0  0  0  0  0  0  0  0  0  0  0  0
    3.2519   -3.0963    0.5954 H   0  0  0  0  0  0  0  0  0  0  0  0
    1.8988   -4.0054   -0.1088 H   0  0  0  0  0  0  0  0  0  0  0  0
   -0.6144    1.7225   -1.6221 H   0  0  0  0  0  0  0  0  0  0  0  0
    0.5808    2.3935   -0.4506 H   0  0  0  0  0  0  0  0  0  0  0  0
   -4.4362    2.2148   -2.0631 H   0  0  0  0  0  0  0  0  0  0  0  0
   -4.9865    1.2064   -0.6937 H   0  0  0  0  0  0  0  0  0  0  0  0
   -4.5293    3.5561    0.0233 H   0  0  0  0  0  0  0  0  0  0  0  0
   -3.4561    2.4107    0.8375 H   0  0  0  0  0  0  0  0  0  0  0  0
   -2.8490    3.3915   -0.5034 H   0  0  0  0  0  0  0  0  0  0  0  0
   -2.8559   -2.3568    1.1136 H   0  0  0  0  0  0  0  0  0  0  0  0
   -2.6655   -1.1088    2.3742 H   0  0  0  0  0  0  0  0  0  0  0  0
   -5.1532   -0.9719    2.5985 H   0  0  0  0  0  0  0  0  0  0  0  0
   -5.3350   -2.2212    1.3593 H   0  0  0  0  0  0  0  0  0  0  0  0
   -4.5784   -2.6174    2.9097 H   0  0  0  0  0  0  0  0  0  0  0  0
  1  2  1  0  0  0  0
  2  3  1  0  0  0  0
  3  4  2  0  0  0  0
  4  5  2  0  0  0  0
  4  6  2  0  0  0  0
  6  7  1  0  0  0  0
  7  8  1  0  0  0  0
  4  9  1  0  0  0  0
  9 10  1  0  0  0  0
 10 11  1  0  0  0  0
 11 12  1  0  0  0  0
 12 13  2  0  0  0  0
 12 14  2  0  0  0  0
 14 15  1  0  0  0  0
 15 16  1  0  0  0  0
 12 17  2  0  0  0  0
 17 18  1  0  0  0  0
 18 19  1  0  0  0  0
  1 20  1  0  0  0  0
  1 21  1  0  0  0  0
  1 22  1  0  0  0  0
  2 23  1  0  0  0  0
  2 24  1  0  0  0  0
  7 25  1  0  0  0  0
  7 26  1  0  0  0  0
  8 27  1  0  0  0  0
  8 28  1  0  0  0  0
  8 29  1  0  0  0  0
 10 30  1  0  0  0  0
 10 31  1  0  0  0  0
 15 32  1  0  0  0  0
 15 33  1  0  0  0  0
 16 34  1  0  0  0  0
 16 35  1  0  0  0  0
 16 36  1  0  0  0  0
 18 37  1  0  0  0  0
 18 38  1  0  0  0  0
 19 39  1  0  0  0  0
 19 40  1  0  0  0  0
 19 41  1  0  0  0  0
M  END
