 xtb: 6.7.1 (edcfbbe)
          04092505213D

 41 40  0     0  0            999 V2000
    2.6721   -0.8160    3.6031 C   0  0  0  0  0  0  0  0  0  0  0  0
    1.8583   -0.5708    2.3491 C   0  0  0  0  0  0  0  0  0  0  0  0
    2.6784   -0.9244    1.2188 O   0  0  0  0  0  0  0  0  0  0  0  0
    2.1179   -0.8945   -0.2700 P   0  0  0  0  0  0  0  0  0  0  0  0
    0.4801   -1.9217   -0.5637 S   0  0  0  0  0  0  0  0  0  0  0  0
    3.3205   -1.4590   -1.1068 O   0  0  0  0  0  0  0  0  0  0  0  0
    4.6437   -0.8625   -1.1266 C   0  0  0  0  0  0  0  0  0  0  0  0
    5.5401   -1.4879   -0.0783 C   0  0  0  0  0  0  0  0  0  0  0  0
    2.0647    1.1959   -0.7502 S   0  0  0  0  0  0  0  0  0  0  0  0
    0.3017    1.3941   -1.0440 C   0  0  0  0  0  0  0  0  0  0  0  0
   -0.6561    1.2583    0.5018 S   0  0  0  0  0  0  0  0  0  0  0  0
   -2.5133    0.6413   -0.3446 P   0  0  0  0  0  0  0  0  0  0  0  0
   -2.4469   -0.0866   -2.1587 S   0  0  0  0  0  0  0  0  0  0  0  0
   -3.4475    1.9081   -0.3284 O   0  0  0  0  0  0  0  0  0  0  0  0
   -3.6811    2.7247    0.8493 C   0  0  0  0  0  0  0  0  0  0  0  0
   -2.9883    4.0644    0.6980 C   0  0  0  0  0  0  0  0  0  0  0  0
   -3.1619   -0.2209    0.8236 O   0  0  0  0  0  0  0  0  0  0  0  0
   -2.6455   -1.4577    1.3432 C   0  0  0  0  0  0  0  0  0  0  0  0
   -3.0125   -2.6346    0.4626 C   0  0  0  0  0  0  0  0  0  0  0  0
    2.0697   -0.5688    4.4708 H   0  0  0  0  0  0  0  0  0  0  0  0
    2.9683   -1.8597    3.6567 H   0  0  0  0  0  0  0  0  0  0  0  0
    3.5628   -0.1948    3.5963 H   0  0  0  0  0  0  0  0  0  0  0  0
    1.5672    0.4806    2.2576 H   0  0  0  0  0  0  0  0  0  0  0  0
    0.9558   -1.1897    2.3270 H   0  0  0  0  0  0  0  0  0  0  0  0
    5.0094   -1.0624   -2.1353 H   0  0  0  0  0  0  0  0  0  0  0  0
    4.5454    0.2162   -0.9762 H   0  0  0  0  0  0  0  0  0  0  0  0
    6.5377   -1.0706   -0.1733 H   0  0  0  0  0  0  0  0  0  0  0  0
    5.1578   -1.2835    0.9175 H   0  0  0  0  0  0  0  0  0  0  0  0
    5.5860   -2.5639   -0.2222 H   0  0  0  0  0  0  0  0  0  0  0  0
   -0.0594    0.6263   -1.7338 H   0  0  0  0  0  0  0  0  0  0  0  0
    0.1754    2.3894   -1.4633 H   0  0  0  0  0  0  0  0  0  0  0  0
   -4.7648    2.8399    0.8975 H   0  0  0  0  0  0  0  0  0  0  0  0
   -3.3283    2.1902    1.7335 H   0  0  0  0  0  0  0  0  0  0  0  0
   -1.9086    3.9373    0.6925 H   0  0  0  0  0  0  0  0  0  0  0  0
   -3.2937    4.5370   -0.2314 H   0  0  0  0  0  0  0  0  0  0  0  0
   -3.2649    4.7017    1.5318 H   0  0  0  0  0  0  0  0  0  0  0  0
   -1.5595   -1.3809    1.4434 H   0  0  0  0  0  0  0  0  0  0  0  0
   -3.1058   -1.5393    2.3297 H   0  0  0  0  0  0  0  0  0  0  0  0
   -2.4966   -2.5633   -0.4935 H   0  0  0  0  0  0  0  0  0  0  0  0
   -2.7085   -3.5549    0.9504 H   0  0  0  0  0  0  0  0  0  0  0  0
   -4.0842   -2.6527    0.2844 H   0  0  0  0  0  0  0  0  0  0  0  0
  1  2  1  0  0  0  0
  2  3  1  0  0  0  0
  3  4  2  0  0  0  0
  4  5  2  0  0  0  0
  4  6  2  0  0  0  0
  6  7  1  0  0  0  0
  7  8  1  0  0  0  0
  4  9  1  0  0  0  0
  9 10  1  0  0  0  0
 10 11  1  0  0  0  0
 11 12  1  0  0  0  0
 12 13  2  0  0  0  0
 12 14  2  0  0  0  0
 14 15  1  0  0  0  0
 15 16  1  0  0  0  0
 12 17  2  0  0  0  0
 17 18  1  0  0  0  0
 18 19  1  0  0  0  0
  1 20  1  0  0  0  0
  1 21  1  0  0  0  0
  1 22  1  0  0  0  0
  2 23  1  0  0  0  0
  2 24  1  0  0  0  0
  7 25  1  0  0  0  0
  7 26  1  0  0  0  0
  8 27  1  0  0  0  0
  8 28  1  0  0  0  0
  8 29  1  0  0  0  0
 10 30  1  0  0  0  0
 10 31  1  0  0  0  0
 15 32  1  0  0  0  0
 15 33  1  0  0  0  0
 16 34  1  0  0  0  0
 16 35  1  0  0  0  0
 16 36  1  0  0  0  0
 18 37  1  0  0  0  0
 18 38  1  0  0  0  0
 19 39  1  0  0  0  0
 19 40  1  0  0  0  0
 19 41  1  0  0  0  0
M  END
