 xtb: 6.7.1 (edcfbbe)
          04092505203D

 41 40  0     0  0            999 V2000
    5.0126   -1.2701   -1.5696 C   0  0  0  0  0  0  0  0  0  0  0  0
    3.6085   -1.8190   -1.7346 C   0  0  0  0  0  0  0  0  0  0  0  0
    2.8427   -1.6944   -0.5203 O   0  0  0  0  0  0  0  0  0  0  0  0
    2.0590   -0.3805   -0.0987 P   0  0  0  0  0  0  0  0  0  0  0  0
    3.0974    1.2469    0.2635 S   0  0  0  0  0  0  0  0  0  0  0  0
    1.2408   -0.9604    1.1232 O   0  0  0  0  0  0  0  0  0  0  0  0
    1.4295   -0.5139    2.4771 C   0  0  0  0  0  0  0  0  0  0  0  0
    2.6226   -1.2033    3.1053 C   0  0  0  0  0  0  0  0  0  0  0  0
    0.6114   -0.2074   -1.6388 S   0  0  0  0  0  0  0  0  0  0  0  0
    0.1070    1.4914   -1.2723 C   0  0  0  0  0  0  0  0  0  0  0  0
   -0.6030    1.6842    0.3888 S   0  0  0  0  0  0  0  0  0  0  0  0
   -2.2489    0.3955    0.1166 P   0  0  0  0  0  0  0  0  0  0  0  0
   -3.0626    0.2911   -1.6671 S   0  0  0  0  0  0  0  0  0  0  0  0
   -3.2705    0.7963    1.2697 O   0  0  0  0  0  0  0  0  0  0  0  0
   -4.3054    1.7771    1.0789 C   0  0  0  0  0  0  0  0  0  0  0  0
   -3.7427    3.1754    0.9256 C   0  0  0  0  0  0  0  0  0  0  0  0
   -1.6422   -0.9383    0.7162 O   0  0  0  0  0  0  0  0  0  0  0  0
   -2.2294   -2.2392    0.4849 C   0  0  0  0  0  0  0  0  0  0  0  0
   -1.3812   -3.0250   -0.4954 C   0  0  0  0  0  0  0  0  0  0  0  0
    5.5157   -1.7698   -0.7463 H   0  0  0  0  0  0  0  0  0  0  0  0
    5.5707   -1.4371   -2.4852 H   0  0  0  0  0  0  0  0  0  0  0  0
    4.9822   -0.2027   -1.3627 H   0  0  0  0  0  0  0  0  0  0  0  0
    3.6238   -2.8934   -1.9279 H   0  0  0  0  0  0  0  0  0  0  0  0
    3.0786   -1.3108   -2.5456 H   0  0  0  0  0  0  0  0  0  0  0  0
    1.5620    0.5736    2.4796 H   0  0  0  0  0  0  0  0  0  0  0  0
    0.4944   -0.7685    2.9784 H   0  0  0  0  0  0  0  0  0  0  0  0
    2.7126   -0.8979    4.1428 H   0  0  0  0  0  0  0  0  0  0  0  0
    2.5047   -2.2821    3.0514 H   0  0  0  0  0  0  0  0  0  0  0  0
    3.5286   -0.9211    2.5705 H   0  0  0  0  0  0  0  0  0  0  0  0
   -0.6347    1.7596   -2.0235 H   0  0  0  0  0  0  0  0  0  0  0  0
    0.9737    2.1508   -1.3106 H   0  0  0  0  0  0  0  0  0  0  0  0
   -4.8866    1.4971    0.1945 H   0  0  0  0  0  0  0  0  0  0  0  0
   -4.9215    1.6851    1.9742 H   0  0  0  0  0  0  0  0  0  0  0  0
   -3.1820    3.2512   -0.0052 H   0  0  0  0  0  0  0  0  0  0  0  0
   -4.5585    3.8907    0.9040 H   0  0  0  0  0  0  0  0  0  0  0  0
   -3.0780    3.4087    1.7537 H   0  0  0  0  0  0  0  0  0  0  0  0
   -2.2552   -2.7175    1.4653 H   0  0  0  0  0  0  0  0  0  0  0  0
   -3.2492   -2.1144    0.1092 H   0  0  0  0  0  0  0  0  0  0  0  0
   -1.4082   -2.5560   -1.4770 H   0  0  0  0  0  0  0  0  0  0  0  0
   -0.3495   -3.0529   -0.1521 H   0  0  0  0  0  0  0  0  0  0  0  0
   -1.7653   -4.0370   -0.5725 H   0  0  0  0  0  0  0  0  0  0  0  0
  1  2  1  0  0  0  0
  2  3  1  0  0  0  0
  3  4  2  0  0  0  0
  4  5  2  0  0  0  0
  4  6  2  0  0  0  0
  6  7  1  0  0  0  0
  7  8  1  0  0  0  0
  4  9  1  0  0  0  0
  9 10  1  0  0  0  0
 10 11  1  0  0  0  0
 11 12  1  0  0  0  0
 12 13  2  0  0  0  0
 12 14  2  0  0  0  0
 14 15  1  0  0  0  0
 15 16  1  0  0  0  0
 12 17  2  0  0  0  0
 17 18  1  0  0  0  0
 18 19  1  0  0  0  0
  1 20  1  0  0  0  0
  1 21  1  0  0  0  0
  1 22  1  0  0  0  0
  2 23  1  0  0  0  0
  2 24  1  0  0  0  0
  7 25  1  0  0  0  0
  7 26  1  0  0  0  0
  8 27  1  0  0  0  0
  8 28  1  0  0  0  0
  8 29  1  0  0  0  0
 10 30  1  0  0  0  0
 10 31  1  0  0  0  0
 15 32  1  0  0  0  0
 15 33  1  0  0  0  0
 16 34  1  0  0  0  0
 16 35  1  0  0  0  0
 16 36  1  0  0  0  0
 18 37  1  0  0  0  0
 18 38  1  0  0  0  0
 19 39  1  0  0  0  0
 19 40  1  0  0  0  0
 19 41  1  0  0  0  0
M  END
