 xtb: 6.7.1 (edcfbbe)
          04092505213D

 41 40  0     0  0            999 V2000
    3.1565   -2.9634   -1.0519 C   0  0  0  0  0  0  0  0  0  0  0  0
    3.7170   -1.8082   -1.8517 C   0  0  0  0  0  0  0  0  0  0  0  0
    3.9050   -0.6129   -1.0536 O   0  0  0  0  0  0  0  0  0  0  0  0
    2.8184    0.1152   -0.1839 P   0  0  0  0  0  0  0  0  0  0  0  0
    3.3092    1.9670    0.2176 S   0  0  0  0  0  0  0  0  0  0  0  0
    2.7335   -0.8242    1.0995 O   0  0  0  0  0  0  0  0  0  0  0  0
    2.1359   -0.4355    2.3494 C   0  0  0  0  0  0  0  0  0  0  0  0
    0.9373   -1.3142    2.6494 C   0  0  0  0  0  0  0  0  0  0  0  0
    1.0071   -0.1248   -1.3002 S   0  0  0  0  0  0  0  0  0  0  0  0
    0.2491    1.4676   -0.9148 C   0  0  0  0  0  0  0  0  0  0  0  0
   -0.6038    1.4738    0.6840 S   0  0  0  0  0  0  0  0  0  0  0  0
   -2.2249    0.2574    0.0683 P   0  0  0  0  0  0  0  0  0  0  0  0
   -2.9093    0.6223   -1.7384 S   0  0  0  0  0  0  0  0  0  0  0  0
   -3.2379    0.3736    1.2842 O   0  0  0  0  0  0  0  0  0  0  0  0
   -3.9637    1.5790    1.5950 C   0  0  0  0  0  0  0  0  0  0  0  0
   -5.2937    1.6220    0.8673 C   0  0  0  0  0  0  0  0  0  0  0  0
   -1.6478   -1.1971    0.2946 O   0  0  0  0  0  0  0  0  0  0  0  0
   -2.1268   -2.3363   -0.4495 C   0  0  0  0  0  0  0  0  0  0  0  0
   -3.5337   -2.7082   -0.0333 C   0  0  0  0  0  0  0  0  0  0  0  0
    3.1238   -3.8476   -1.6809 H   0  0  0  0  0  0  0  0  0  0  0  0
    3.7811   -3.1590   -0.1843 H   0  0  0  0  0  0  0  0  0  0  0  0
    2.1479   -2.7298   -0.7165 H   0  0  0  0  0  0  0  0  0  0  0  0
    3.0599   -1.5571   -2.6883 H   0  0  0  0  0  0  0  0  0  0  0  0
    4.7221   -2.0194   -2.2196 H   0  0  0  0  0  0  0  0  0  0  0  0
    2.9175   -0.5695    3.1005 H   0  0  0  0  0  0  0  0  0  0  0  0
    1.8604    0.6238    2.3099 H   0  0  0  0  0  0  0  0  0  0  0  0
    0.1621   -1.1796    1.8990 H   0  0  0  0  0  0  0  0  0  0  0  0
    1.2368   -2.3581    2.6628 H   0  0  0  0  0  0  0  0  0  0  0  0
    0.5345   -1.0424    3.6196 H   0  0  0  0  0  0  0  0  0  0  0  0
   -0.4720    1.6757   -1.7059 H   0  0  0  0  0  0  0  0  0  0  0  0
    1.0240    2.2339   -0.8630 H   0  0  0  0  0  0  0  0  0  0  0  0
   -4.1047    1.5373    2.6767 H   0  0  0  0  0  0  0  0  0  0  0  0
   -3.3477    2.4470    1.3425 H   0  0  0  0  0  0  0  0  0  0  0  0
   -5.8838    0.7438    1.1143 H   0  0  0  0  0  0  0  0  0  0  0  0
   -5.8359    2.5135    1.1656 H   0  0  0  0  0  0  0  0  0  0  0  0
   -5.1366    1.6475   -0.2088 H   0  0  0  0  0  0  0  0  0  0  0  0
   -2.0845   -2.0979   -1.5170 H   0  0  0  0  0  0  0  0  0  0  0  0
   -1.4097   -3.1242   -0.2174 H   0  0  0  0  0  0  0  0  0  0  0  0
   -3.5769   -2.8723    1.0400 H   0  0  0  0  0  0  0  0  0  0  0  0
   -4.2168   -1.9001   -0.2931 H   0  0  0  0  0  0  0  0  0  0  0  0
   -3.8393   -3.6108   -0.5528 H   0  0  0  0  0  0  0  0  0  0  0  0
  1  2  1  0  0  0  0
  2  3  1  0  0  0  0
  3  4  2  0  0  0  0
  4  5  2  0  0  0  0
  4  6  2  0  0  0  0
  6  7  1  0  0  0  0
  7  8  1  0  0  0  0
  4  9  1  0  0  0  0
  9 10  1  0  0  0  0
 10 11  1  0  0  0  0
 11 12  1  0  0  0  0
 12 13  2  0  0  0  0
 12 14  2  0  0  0  0
 14 15  1  0  0  0  0
 15 16  1  0  0  0  0
 12 17  2  0  0  0  0
 17 18  1  0  0  0  0
 18 19  1  0  0  0  0
  1 20  1  0  0  0  0
  1 21  1  0  0  0  0
  1 22  1  0  0  0  0
  2 23  1  0  0  0  0
  2 24  1  0  0  0  0
  7 25  1  0  0  0  0
  7 26  1  0  0  0  0
  8 27  1  0  0  0  0
  8 28  1  0  0  0  0
  8 29  1  0  0  0  0
 10 30  1  0  0  0  0
 10 31  1  0  0  0  0
 15 32  1  0  0  0  0
 15 33  1  0  0  0  0
 16 34  1  0  0  0  0
 16 35  1  0  0  0  0
 16 36  1  0  0  0  0
 18 37  1  0  0  0  0
 18 38  1  0  0  0  0
 19 39  1  0  0  0  0
 19 40  1  0  0  0  0
 19 41  1  0  0  0  0
M  END
