 xtb: 6.7.1 (edcfbbe)
          04092505203D

 41 40  0     0  0            999 V2000
    2.5988    0.4795   -2.6889 C   0  0  0  0  0  0  0  0  0  0  0  0
    1.7439    1.3918   -1.8363 C   0  0  0  0  0  0  0  0  0  0  0  0
    1.2347    0.7182   -0.6705 O   0  0  0  0  0  0  0  0  0  0  0  0
    2.1662    0.3353    0.5544 P   0  0  0  0  0  0  0  0  0  0  0  0
    3.5596    1.6326    1.0078 S   0  0  0  0  0  0  0  0  0  0  0  0
    2.7018   -1.1091    0.1306 O   0  0  0  0  0  0  0  0  0  0  0  0
    3.8605   -1.6936    0.7486 C   0  0  0  0  0  0  0  0  0  0  0  0
    3.5843   -2.1293    2.1737 C   0  0  0  0  0  0  0  0  0  0  0  0
    0.6814   -0.0199    1.9944 S   0  0  0  0  0  0  0  0  0  0  0  0
   -0.2253   -1.3998    1.1869 C   0  0  0  0  0  0  0  0  0  0  0  0
   -1.9913   -1.0773    1.0889 S   0  0  0  0  0  0  0  0  0  0  0  0
   -2.0049   -0.0154   -0.7617 P   0  0  0  0  0  0  0  0  0  0  0  0
   -0.9783   -0.8888   -2.1824 S   0  0  0  0  0  0  0  0  0  0  0  0
   -1.4801    1.4591   -0.5435 O   0  0  0  0  0  0  0  0  0  0  0  0
   -2.1961    2.5395    0.1010 C   0  0  0  0  0  0  0  0  0  0  0  0
   -2.4445    2.2898    1.5745 C   0  0  0  0  0  0  0  0  0  0  0  0
   -3.5522    0.2393   -1.0146 O   0  0  0  0  0  0  0  0  0  0  0  0
   -4.5851   -0.7581   -0.9065 C   0  0  0  0  0  0  0  0  0  0  0  0
   -4.3354   -1.9623   -1.7896 C   0  0  0  0  0  0  0  0  0  0  0  0
    3.5042    0.2044   -2.1506 H   0  0  0  0  0  0  0  0  0  0  0  0
    2.0415   -0.4214   -2.9366 H   0  0  0  0  0  0  0  0  0  0  0  0
    2.8716    0.9969   -3.6032 H   0  0  0  0  0  0  0  0  0  0  0  0
    0.8429    1.7065   -2.3663 H   0  0  0  0  0  0  0  0  0  0  0  0
    2.3109    2.2682   -1.5056 H   0  0  0  0  0  0  0  0  0  0  0  0
    4.1045   -2.5402    0.1056 H   0  0  0  0  0  0  0  0  0  0  0  0
    4.6719   -0.9588    0.7242 H   0  0  0  0  0  0  0  0  0  0  0  0
    4.4684   -2.6125    2.5770 H   0  0  0  0  0  0  0  0  0  0  0  0
    3.3467   -1.2610    2.7881 H   0  0  0  0  0  0  0  0  0  0  0  0
    2.7499   -2.8251    2.2052 H   0  0  0  0  0  0  0  0  0  0  0  0
   -0.1053   -2.2822    1.8092 H   0  0  0  0  0  0  0  0  0  0  0  0
    0.1707   -1.5524    0.1818 H   0  0  0  0  0  0  0  0  0  0  0  0
   -1.5369    3.3964   -0.0498 H   0  0  0  0  0  0  0  0  0  0  0  0
   -3.1342    2.6937   -0.4352 H   0  0  0  0  0  0  0  0  0  0  0  0
   -3.1541    1.4774    1.7146 H   0  0  0  0  0  0  0  0  0  0  0  0
   -1.5149    2.0371    2.0811 H   0  0  0  0  0  0  0  0  0  0  0  0
   -2.8523    3.1929    2.0180 H   0  0  0  0  0  0  0  0  0  0  0  0
   -4.6619   -1.0580    0.1420 H   0  0  0  0  0  0  0  0  0  0  0  0
   -5.4877   -0.2233   -1.2078 H   0  0  0  0  0  0  0  0  0  0  0  0
   -3.4426   -2.4916   -1.4609 H   0  0  0  0  0  0  0  0  0  0  0  0
   -5.1865   -2.6331   -1.7312 H   0  0  0  0  0  0  0  0  0  0  0  0
   -4.1903   -1.6532   -2.8220 H   0  0  0  0  0  0  0  0  0  0  0  0
  1  2  1  0  0  0  0
  2  3  1  0  0  0  0
  3  4  2  0  0  0  0
  4  5  2  0  0  0  0
  4  6  2  0  0  0  0
  6  7  1  0  0  0  0
  7  8  1  0  0  0  0
  4  9  1  0  0  0  0
  9 10  1  0  0  0  0
 10 11  1  0  0  0  0
 11 12  1  0  0  0  0
 12 13  2  0  0  0  0
 12 14  2  0  0  0  0
 14 15  1  0  0  0  0
 15 16  1  0  0  0  0
 12 17  2  0  0  0  0
 17 18  1  0  0  0  0
 18 19  1  0  0  0  0
  1 20  1  0  0  0  0
  1 21  1  0  0  0  0
  1 22  1  0  0  0  0
  2 23  1  0  0  0  0
  2 24  1  0  0  0  0
  7 25  1  0  0  0  0
  7 26  1  0  0  0  0
  8 27  1  0  0  0  0
  8 28  1  0  0  0  0
  8 29  1  0  0  0  0
 10 30  1  0  0  0  0
 10 31  1  0  0  0  0
 15 32  1  0  0  0  0
 15 33  1  0  0  0  0
 16 34  1  0  0  0  0
 16 35  1  0  0  0  0
 16 36  1  0  0  0  0
 18 37  1  0  0  0  0
 18 38  1  0  0  0  0
 19 39  1  0  0  0  0
 19 40  1  0  0  0  0
 19 41  1  0  0  0  0
M  END
