 xtb: 6.7.1 (edcfbbe)
          04092505213D

 41 40  0     0  0            999 V2000
    5.5521   -0.0739   -1.9047 C   0  0  0  0  0  0  0  0  0  0  0  0
    4.0475   -0.2401   -1.8386 C   0  0  0  0  0  0  0  0  0  0  0  0
    3.6198    0.1243   -0.5115 O   0  0  0  0  0  0  0  0  0  0  0  0
    2.0754    0.3177   -0.1685 P   0  0  0  0  0  0  0  0  0  0  0  0
    1.1592    1.6126   -1.3089 S   0  0  0  0  0  0  0  0  0  0  0  0
    2.1343    0.7556    1.3343 O   0  0  0  0  0  0  0  0  0  0  0  0
    2.6611   -0.0685    2.4036 C   0  0  0  0  0  0  0  0  0  0  0  0
    4.0957    0.3064    2.7090 C   0  0  0  0  0  0  0  0  0  0  0  0
    1.3404   -1.6874   -0.2594 S   0  0  0  0  0  0  0  0  0  0  0  0
   -0.0069   -1.4975   -1.4664 C   0  0  0  0  0  0  0  0  0  0  0  0
   -1.6440   -1.9220   -0.8152 S   0  0  0  0  0  0  0  0  0  0  0  0
   -2.0822   -0.2160    0.3348 P   0  0  0  0  0  0  0  0  0  0  0  0
   -0.9377    0.3023    1.8314 S   0  0  0  0  0  0  0  0  0  0  0  0
   -3.5413   -0.5331    0.8639 O   0  0  0  0  0  0  0  0  0  0  0  0
   -4.6277   -0.8973   -0.0267 C   0  0  0  0  0  0  0  0  0  0  0  0
   -5.9283   -0.4783    0.6273 C   0  0  0  0  0  0  0  0  0  0  0  0
   -2.2097    0.8570   -0.8452 O   0  0  0  0  0  0  0  0  0  0  0  0
   -2.1672    2.2710   -0.5880 C   0  0  0  0  0  0  0  0  0  0  0  0
   -3.4539    2.7581    0.0447 C   0  0  0  0  0  0  0  0  0  0  0  0
    5.8953   -0.3381   -2.8995 H   0  0  0  0  0  0  0  0  0  0  0  0
    5.8226    0.9568   -1.6937 H   0  0  0  0  0  0  0  0  0  0  0  0
    6.0311   -0.7210   -1.1757 H   0  0  0  0  0  0  0  0  0  0  0  0
    3.7516   -1.2773   -2.0206 H   0  0  0  0  0  0  0  0  0  0  0  0
    3.5395    0.4109   -2.5578 H   0  0  0  0  0  0  0  0  0  0  0  0
    1.9964    0.1318    3.2466 H   0  0  0  0  0  0  0  0  0  0  0  0
    2.5743   -1.1204    2.1167 H   0  0  0  0  0  0  0  0  0  0  0  0
    4.7268    0.1113    1.8461 H   0  0  0  0  0  0  0  0  0  0  0  0
    4.1579    1.3619    2.9588 H   0  0  0  0  0  0  0  0  0  0  0  0
    4.4428   -0.2837    3.5513 H   0  0  0  0  0  0  0  0  0  0  0  0
    0.1724   -2.2058   -2.2711 H   0  0  0  0  0  0  0  0  0  0  0  0
   -0.0102   -0.4664   -1.8316 H   0  0  0  0  0  0  0  0  0  0  0  0
   -4.4797   -0.3987   -0.9881 H   0  0  0  0  0  0  0  0  0  0  0  0
   -4.5831   -1.9790   -0.1711 H   0  0  0  0  0  0  0  0  0  0  0  0
   -5.9568    0.5997    0.7606 H   0  0  0  0  0  0  0  0  0  0  0  0
   -6.7568   -0.7844   -0.0032 H   0  0  0  0  0  0  0  0  0  0  0  0
   -6.0215   -0.9519    1.6003 H   0  0  0  0  0  0  0  0  0  0  0  0
   -1.3101    2.4839    0.0595 H   0  0  0  0  0  0  0  0  0  0  0  0
   -1.9909    2.7150   -1.5689 H   0  0  0  0  0  0  0  0  0  0  0  0
   -3.3993    3.8334    0.1823 H   0  0  0  0  0  0  0  0  0  0  0  0
   -4.3020    2.5190   -0.5917 H   0  0  0  0  0  0  0  0  0  0  0  0
   -3.5866    2.2834    1.0169 H   0  0  0  0  0  0  0  0  0  0  0  0
  1  2  1  0  0  0  0
  2  3  1  0  0  0  0
  3  4  2  0  0  0  0
  4  5  2  0  0  0  0
  4  6  2  0  0  0  0
  6  7  1  0  0  0  0
  7  8  1  0  0  0  0
  4  9  1  0  0  0  0
  9 10  1  0  0  0  0
 10 11  1  0  0  0  0
 11 12  1  0  0  0  0
 12 13  2  0  0  0  0
 12 14  2  0  0  0  0
 14 15  1  0  0  0  0
 15 16  1  0  0  0  0
 12 17  1  0  0  0  0
 17 18  1  0  0  0  0
 18 19  1  0  0  0  0
  1 20  1  0  0  0  0
  1 21  1  0  0  0  0
  1 22  1  0  0  0  0
  2 23  1  0  0  0  0
  2 24  1  0  0  0  0
  7 25  1  0  0  0  0
  7 26  1  0  0  0  0
  8 27  1  0  0  0  0
  8 28  1  0  0  0  0
  8 29  1  0  0  0  0
 10 30  1  0  0  0  0
 10 31  1  0  0  0  0
 15 32  1  0  0  0  0
 15 33  1  0  0  0  0
 16 34  1  0  0  0  0
 16 35  1  0  0  0  0
 16 36  1  0  0  0  0
 18 37  1  0  0  0  0
 18 38  1  0  0  0  0
 19 39  1  0  0  0  0
 19 40  1  0  0  0  0
 19 41  1  0  0  0  0
M  END
