 xtb: 6.7.1 (edcfbbe)
          04092507313D

 38 37  0     0  0            999 V2000
    5.2187   -1.8226    0.9419 C   0  0  0  0  0  0  0  0  0  0  0  0
    4.6006   -1.1420   -0.2631 C   0  0  0  0  0  0  0  0  0  0  0  0
    3.1788   -1.3781   -0.2307 O   0  0  0  0  0  0  0  0  0  0  0  0
    2.4504   -0.8519   -1.1885 C   0  0  0  0  0  0  0  0  0  0  0  0
    2.8952   -0.1876   -2.1000 O   0  0  0  0  0  0  0  0  0  0  0  0
    0.9794   -1.1935   -1.0292 C   0  0  0  0  0  0  0  0  0  0  0  0
    0.1426    0.0190   -1.4196 C   0  0  0  0  0  0  0  0  0  0  0  0
    0.4999    0.3966   -2.3853 H   0  0  0  0  0  0  0  0  0  0  0  0
    0.2502    1.1502   -0.4198 C   0  0  0  0  0  0  0  0  0  0  0  0
   -0.6830    1.8865   -0.1573 O   0  0  0  0  0  0  0  0  0  0  0  0
    1.4419    1.2494    0.0956 O   0  0  0  0  0  0  0  0  0  0  0  0
    1.6627    2.2715    1.0934 C   0  0  0  0  0  0  0  0  0  0  0  0
    3.1248    2.2298    1.4861 C   0  0  0  0  0  0  0  0  0  0  0  0
   -1.6207   -0.3601   -1.6783 S   0  0  0  0  0  0  0  0  0  0  0  0
   -2.3871   -0.1249    0.2857 P   0  0  0  0  0  0  0  0  0  0  0  0
   -1.1795   -0.4197    1.8114 S   0  0  0  0  0  0  0  0  0  0  0  0
   -3.3486    1.1328    0.3281 O   0  0  0  0  0  0  0  0  0  0  0  0
   -3.1697    2.3028    1.1301 C   0  0  0  0  0  0  0  0  0  0  0  0
   -3.5774   -1.1888    0.2356 O   0  0  0  0  0  0  0  0  0  0  0  0
   -3.3114   -2.5944    0.1753 C   0  0  0  0  0  0  0  0  0  0  0  0
    5.0330   -2.8916    0.9025 H   0  0  0  0  0  0  0  0  0  0  0  0
    6.2888   -1.6442    0.9454 H   0  0  0  0  0  0  0  0  0  0  0  0
    4.7863   -1.4282    1.8565 H   0  0  0  0  0  0  0  0  0  0  0  0
    4.9944   -1.5410   -1.2030 H   0  0  0  0  0  0  0  0  0  0  0  0
    4.7676   -0.0608   -0.2526 H   0  0  0  0  0  0  0  0  0  0  0  0
    0.7900   -1.5033   -0.0010 H   0  0  0  0  0  0  0  0  0  0  0  0
    0.7448   -2.0185   -1.7043 H   0  0  0  0  0  0  0  0  0  0  0  0
    1.3771    3.2370    0.6661 H   0  0  0  0  0  0  0  0  0  0  0  0
    1.0056    2.0526    1.9411 H   0  0  0  0  0  0  0  0  0  0  0  0
    3.3691    1.2546    1.8968 H   0  0  0  0  0  0  0  0  0  0  0  0
    3.7488    2.4171    0.6167 H   0  0  0  0  0  0  0  0  0  0  0  0
    3.3149    2.9914    2.2347 H   0  0  0  0  0  0  0  0  0  0  0  0
   -2.5430    2.0808    1.9957 H   0  0  0  0  0  0  0  0  0  0  0  0
   -4.1663    2.5995    1.4491 H   0  0  0  0  0  0  0  0  0  0  0  0
   -2.7018    3.0812    0.5302 H   0  0  0  0  0  0  0  0  0  0  0  0
   -2.9180   -2.8605   -0.8059 H   0  0  0  0  0  0  0  0  0  0  0  0
   -4.2696   -3.0783    0.3463 H   0  0  0  0  0  0  0  0  0  0  0  0
   -2.5997   -2.8751    0.9540 H   0  0  0  0  0  0  0  0  0  0  0  0
  1  2  1  0  0  0  0
  2  3  1  0  0  0  0
  3  4  4  0  0  0  0
  4  5  2  0  0  0  0
  4  6  1  0  0  0  0
  6  7  1  0  0  0  0
  7  8  1  0  0  0  0
  7  9  1  0  0  0  0
  9 10  2  0  0  0  0
  9 11  4  0  0  0  0
 11 12  1  0  0  0  0
 12 13  1  0  0  0  0
  7 14  1  0  0  0  0
 14 15  1  0  0  0  0
 15 16  2  0  0  0  0
 15 17  2  0  0  0  0
 17 18  1  0  0  0  0
 15 19  1  0  0  0  0
 19 20  1  0  0  0  0
  1 21  1  0  0  0  0
  1 22  1  0  0  0  0
  1 23  1  0  0  0  0
  2 24  1  0  0  0  0
  2 25  1  0  0  0  0
  6 26  1  0  0  0  0
  6 27  1  0  0  0  0
 12 28  1  0  0  0  0
 12 29  1  0  0  0  0
 13 30  1  0  0  0  0
 13 31  1  0  0  0  0
 13 32  1  0  0  0  0
 18 33  1  0  0  0  0
 18 34  1  0  0  0  0
 18 35  1  0  0  0  0
 20 36  1  0  0  0  0
 20 37  1  0  0  0  0
 20 38  1  0  0  0  0
M  END
