 xtb: 6.7.1 (edcfbbe)
          04092505203D

 41 40  0     0  0            999 V2000
    4.0721   -2.5693   -1.4576 C   0  0  0  0  0  0  0  0  0  0  0  0
    4.2877   -1.1065   -1.1243 C   0  0  0  0  0  0  0  0  0  0  0  0
    3.1929   -0.3104   -1.6503 O   0  0  0  0  0  0  0  0  0  0  0  0
    2.1097    0.3910   -0.7450 P   0  0  0  0  0  0  0  0  0  0  0  0
    0.8272    1.3182   -1.8966 S   0  0  0  0  0  0  0  0  0  0  0  0
    3.0342    1.2721    0.1962 O   0  0  0  0  0  0  0  0  0  0  0  0
    2.5976    2.1850    1.2201 C   0  0  0  0  0  0  0  0  0  0  0  0
    2.6300    1.5234    2.5832 C   0  0  0  0  0  0  0  0  0  0  0  0
    1.3358   -1.1492    0.5022 S   0  0  0  0  0  0  0  0  0  0  0  0
   -0.0280   -1.6727   -0.5869 C   0  0  0  0  0  0  0  0  0  0  0  0
   -1.6150   -1.8133    0.2666 S   0  0  0  0  0  0  0  0  0  0  0  0
   -2.1124    0.2503    0.4711 P   0  0  0  0  0  0  0  0  0  0  0  0
   -0.8511    1.4160    1.4058 S   0  0  0  0  0  0  0  0  0  0  0  0
   -3.5816    0.1652    1.0711 O   0  0  0  0  0  0  0  0  0  0  0  0
   -3.9771   -0.6505    2.1912 C   0  0  0  0  0  0  0  0  0  0  0  0
   -3.1006   -0.4441    3.4080 C   0  0  0  0  0  0  0  0  0  0  0  0
   -2.3821    0.8417   -0.9627 O   0  0  0  0  0  0  0  0  0  0  0  0
   -3.3709    0.3659   -1.9079 C   0  0  0  0  0  0  0  0  0  0  0  0
   -2.7440   -0.5599   -2.9325 C   0  0  0  0  0  0  0  0  0  0  0  0
    4.9573   -3.1299   -1.1748 H   0  0  0  0  0  0  0  0  0  0  0  0
    3.2161   -2.9617   -0.9146 H   0  0  0  0  0  0  0  0  0  0  0  0
    3.9001   -2.6846   -2.5240 H   0  0  0  0  0  0  0  0  0  0  0  0
    5.1793   -0.7128   -1.6140 H   0  0  0  0  0  0  0  0  0  0  0  0
    4.3616   -0.9488   -0.0465 H   0  0  0  0  0  0  0  0  0  0  0  0
    3.3064    3.0134    1.1628 H   0  0  0  0  0  0  0  0  0  0  0  0
    1.5933    2.5478    0.9849 H   0  0  0  0  0  0  0  0  0  0  0  0
    2.4006    2.2680    3.3382 H   0  0  0  0  0  0  0  0  0  0  0  0
    1.8832    0.7349    2.6389 H   0  0  0  0  0  0  0  0  0  0  0  0
    3.6135    1.1032    2.7734 H   0  0  0  0  0  0  0  0  0  0  0  0
    0.1877   -2.6690   -0.9639 H   0  0  0  0  0  0  0  0  0  0  0  0
   -0.1095   -0.9434   -1.3976 H   0  0  0  0  0  0  0  0  0  0  0  0
   -5.0058   -0.3393    2.3820 H   0  0  0  0  0  0  0  0  0  0  0  0
   -3.9564   -1.6963    1.8724 H   0  0  0  0  0  0  0  0  0  0  0  0
   -3.0748    0.6077    3.6837 H   0  0  0  0  0  0  0  0  0  0  0  0
   -3.4922   -1.0251    4.2367 H   0  0  0  0  0  0  0  0  0  0  0  0
   -2.0822   -0.7679    3.1969 H   0  0  0  0  0  0  0  0  0  0  0  0
   -4.1806   -0.1224   -1.3624 H   0  0  0  0  0  0  0  0  0  0  0  0
   -3.7399    1.2783   -2.3790 H   0  0  0  0  0  0  0  0  0  0  0  0
   -3.4539   -0.7297   -3.7357 H   0  0  0  0  0  0  0  0  0  0  0  0
   -1.8481   -0.0978   -3.3424 H   0  0  0  0  0  0  0  0  0  0  0  0
   -2.4820   -1.5161   -2.4859 H   0  0  0  0  0  0  0  0  0  0  0  0
  1  2  1  0  0  0  0
  2  3  1  0  0  0  0
  3  4  2  0  0  0  0
  4  5  2  0  0  0  0
  4  6  2  0  0  0  0
  6  7  1  0  0  0  0
  7  8  1  0  0  0  0
  4  9  1  0  0  0  0
  9 10  1  0  0  0  0
 10 11  1  0  0  0  0
 11 12  1  0  0  0  0
 12 13  2  0  0  0  0
 12 14  2  0  0  0  0
 14 15  1  0  0  0  0
 15 16  1  0  0  0  0
 12 17  2  0  0  0  0
 17 18  1  0  0  0  0
 18 19  1  0  0  0  0
  1 20  1  0  0  0  0
  1 21  1  0  0  0  0
  1 22  1  0  0  0  0
  2 23  1  0  0  0  0
  2 24  1  0  0  0  0
  7 25  1  0  0  0  0
  7 26  1  0  0  0  0
  8 27  1  0  0  0  0
  8 28  1  0  0  0  0
  8 29  1  0  0  0  0
 10 30  1  0  0  0  0
 10 31  1  0  0  0  0
 15 32  1  0  0  0  0
 15 33  1  0  0  0  0
 16 34  1  0  0  0  0
 16 35  1  0  0  0  0
 16 36  1  0  0  0  0
 18 37  1  0  0  0  0
 18 38  1  0  0  0  0
 19 39  1  0  0  0  0
 19 40  1  0  0  0  0
 19 41  1  0  0  0  0
M  END
