 xtb: 6.7.1 (edcfbbe)
          04092505203D

 41 40  0     0  0            999 V2000
    3.2586    0.1482    3.2348 C   0  0  0  0  0  0  0  0  0  0  0  0
    1.8860   -0.2547    2.7409 C   0  0  0  0  0  0  0  0  0  0  0  0
    1.6014    0.3400    1.4554 O   0  0  0  0  0  0  0  0  0  0  0  0
    2.3089   -0.1631    0.1344 P   0  0  0  0  0  0  0  0  0  0  0  0
    2.8571   -2.0501    0.1425 S   0  0  0  0  0  0  0  0  0  0  0  0
    3.4412    0.9352   -0.0456 O   0  0  0  0  0  0  0  0  0  0  0  0
    4.3307    0.9630   -1.1793 C   0  0  0  0  0  0  0  0  0  0  0  0
    5.5914    0.1660   -0.9043 C   0  0  0  0  0  0  0  0  0  0  0  0
    0.9018    0.3601   -1.3598 S   0  0  0  0  0  0  0  0  0  0  0  0
   -0.1205   -1.1268   -1.1810 C   0  0  0  0  0  0  0  0  0  0  0  0
   -1.1963   -1.0622    0.2661 S   0  0  0  0  0  0  0  0  0  0  0  0
   -2.5602    0.3758   -0.5369 P   0  0  0  0  0  0  0  0  0  0  0  0
   -2.9312    0.1417   -2.4456 S   0  0  0  0  0  0  0  0  0  0  0  0
   -1.9590    1.8048   -0.2406 O   0  0  0  0  0  0  0  0  0  0  0  0
   -2.0918    2.5487    0.9946 C   0  0  0  0  0  0  0  0  0  0  0  0
   -1.3936    1.8711    2.1541 C   0  0  0  0  0  0  0  0  0  0  0  0
   -3.8171    0.3218    0.4314 O   0  0  0  0  0  0  0  0  0  0  0  0
   -4.9158   -0.5849    0.2196 C   0  0  0  0  0  0  0  0  0  0  0  0
   -4.5122   -2.0334    0.3996 C   0  0  0  0  0  0  0  0  0  0  0  0
    3.4163   -0.2507    4.2318 H   0  0  0  0  0  0  0  0  0  0  0  0
    4.0196   -0.2537    2.5666 H   0  0  0  0  0  0  0  0  0  0  0  0
    3.3483    1.2309    3.2567 H   0  0  0  0  0  0  0  0  0  0  0  0
    1.0910    0.1159    3.3887 H   0  0  0  0  0  0  0  0  0  0  0  0
    1.8096   -1.3424    2.6453 H   0  0  0  0  0  0  0  0  0  0  0  0
    3.8057    0.5802   -2.0596 H   0  0  0  0  0  0  0  0  0  0  0  0
    4.5538    2.0219   -1.3233 H   0  0  0  0  0  0  0  0  0  0  0  0
    6.2620    0.2543   -1.7530 H   0  0  0  0  0  0  0  0  0  0  0  0
    6.0864    0.5452   -0.0146 H   0  0  0  0  0  0  0  0  0  0  0  0
    5.3501   -0.8837   -0.7519 H   0  0  0  0  0  0  0  0  0  0  0  0
    0.5267   -1.9977   -1.0668 H   0  0  0  0  0  0  0  0  0  0  0  0
   -0.7324   -1.1990   -2.0810 H   0  0  0  0  0  0  0  0  0  0  0  0
   -1.6335    3.5094    0.7545 H   0  0  0  0  0  0  0  0  0  0  0  0
   -3.1555    2.6825    1.2004 H   0  0  0  0  0  0  0  0  0  0  0  0
   -0.3494    1.6930    1.9089 H   0  0  0  0  0  0  0  0  0  0  0  0
   -1.4526    2.5132    3.0276 H   0  0  0  0  0  0  0  0  0  0  0  0
   -1.8718    0.9189    2.3770 H   0  0  0  0  0  0  0  0  0  0  0  0
   -5.6513   -0.2759    0.9638 H   0  0  0  0  0  0  0  0  0  0  0  0
   -5.3098   -0.4185   -0.7875 H   0  0  0  0  0  0  0  0  0  0  0  0
   -4.0182   -2.1756    1.3573 H   0  0  0  0  0  0  0  0  0  0  0  0
   -5.3980   -2.6588    0.3537 H   0  0  0  0  0  0  0  0  0  0  0  0
   -3.8298   -2.3318   -0.3947 H   0  0  0  0  0  0  0  0  0  0  0  0
  1  2  1  0  0  0  0
  2  3  1  0  0  0  0
  3  4  2  0  0  0  0
  4  5  2  0  0  0  0
  4  6  2  0  0  0  0
  6  7  1  0  0  0  0
  7  8  1  0  0  0  0
  4  9  1  0  0  0  0
  9 10  1  0  0  0  0
 10 11  1  0  0  0  0
 11 12  1  0  0  0  0
 12 13  2  0  0  0  0
 12 14  2  0  0  0  0
 14 15  1  0  0  0  0
 15 16  1  0  0  0  0
 12 17  2  0  0  0  0
 17 18  1  0  0  0  0
 18 19  1  0  0  0  0
  1 20  1  0  0  0  0
  1 21  1  0  0  0  0
  1 22  1  0  0  0  0
  2 23  1  0  0  0  0
  2 24  1  0  0  0  0
  7 25  1  0  0  0  0
  7 26  1  0  0  0  0
  8 27  1  0  0  0  0
  8 28  1  0  0  0  0
  8 29  1  0  0  0  0
 10 30  1  0  0  0  0
 10 31  1  0  0  0  0
 15 32  1  0  0  0  0
 15 33  1  0  0  0  0
 16 34  1  0  0  0  0
 16 35  1  0  0  0  0
 16 36  1  0  0  0  0
 18 37  1  0  0  0  0
 18 38  1  0  0  0  0
 19 39  1  0  0  0  0
 19 40  1  0  0  0  0
 19 41  1  0  0  0  0
M  END
