 xtb: 6.7.1 (edcfbbe)
          04092505213D

 41 40  0     0  0            999 V2000
    4.3615   -0.5648   -2.4381 C   0  0  0  0  0  0  0  0  0  0  0  0
    3.0364   -1.2792   -2.2786 C   0  0  0  0  0  0  0  0  0  0  0  0
    2.6415   -1.3322   -0.8937 O   0  0  0  0  0  0  0  0  0  0  0  0
    2.1019   -0.0610   -0.1179 P   0  0  0  0  0  0  0  0  0  0  0  0
    1.2296    1.2596   -1.2852 S   0  0  0  0  0  0  0  0  0  0  0  0
    3.4103    0.4750    0.6088 O   0  0  0  0  0  0  0  0  0  0  0  0
    3.4375    1.2345    1.8298 C   0  0  0  0  0  0  0  0  0  0  0  0
    2.4960    2.4211    1.8108 C   0  0  0  0  0  0  0  0  0  0  0  0
    1.0915   -1.0405    1.4699 S   0  0  0  0  0  0  0  0  0  0  0  0
    0.0707   -2.2070    0.5184 C   0  0  0  0  0  0  0  0  0  0  0  0
   -0.8138   -1.4824   -0.8871 S   0  0  0  0  0  0  0  0  0  0  0  0
   -2.0817   -0.1321    0.1480 P   0  0  0  0  0  0  0  0  0  0  0  0
   -1.3860    1.3348    1.2562 S   0  0  0  0  0  0  0  0  0  0  0  0
   -2.9152   -1.1933    0.9782 O   0  0  0  0  0  0  0  0  0  0  0  0
   -3.6706   -0.8297    2.1502 C   0  0  0  0  0  0  0  0  0  0  0  0
   -4.9136   -0.0495    1.7795 C   0  0  0  0  0  0  0  0  0  0  0  0
   -3.1092    0.2759   -0.9916 O   0  0  0  0  0  0  0  0  0  0  0  0
   -2.7909    0.9140   -2.2407 C   0  0  0  0  0  0  0  0  0  0  0  0
   -2.3460    2.3519   -2.0653 C   0  0  0  0  0  0  0  0  0  0  0  0
    4.2561    0.4712   -2.1174 H   0  0  0  0  0  0  0  0  0  0  0  0
    5.1228   -1.0431   -1.8278 H   0  0  0  0  0  0  0  0  0  0  0  0
    4.6627   -0.5861   -3.4805 H   0  0  0  0  0  0  0  0  0  0  0  0
    3.0964   -2.3260   -2.5784 H   0  0  0  0  0  0  0  0  0  0  0  0
    2.2500   -0.7718   -2.8471 H   0  0  0  0  0  0  0  0  0  0  0  0
    3.1894    0.5597    2.6546 H   0  0  0  0  0  0  0  0  0  0  0  0
    4.4784    1.5530    1.9110 H   0  0  0  0  0  0  0  0  0  0  0  0
    1.4597    2.0854    1.7488 H   0  0  0  0  0  0  0  0  0  0  0  0
    2.6193    2.9959    2.7230 H   0  0  0  0  0  0  0  0  0  0  0  0
    2.7020    3.0577    0.9531 H   0  0  0  0  0  0  0  0  0  0  0  0
   -0.6424   -2.6281    1.2242 H   0  0  0  0  0  0  0  0  0  0  0  0
    0.7110   -2.9789    0.0972 H   0  0  0  0  0  0  0  0  0  0  0  0
   -3.9130   -1.7854    2.6165 H   0  0  0  0  0  0  0  0  0  0  0  0
   -3.0269   -0.2405    2.8117 H   0  0  0  0  0  0  0  0  0  0  0  0
   -5.4962    0.1510    2.6730 H   0  0  0  0  0  0  0  0  0  0  0  0
   -4.6262    0.8961    1.3210 H   0  0  0  0  0  0  0  0  0  0  0  0
   -5.5141   -0.6132    1.0706 H   0  0  0  0  0  0  0  0  0  0  0  0
   -2.0179    0.3301   -2.7490 H   0  0  0  0  0  0  0  0  0  0  0  0
   -3.7266    0.8531   -2.8000 H   0  0  0  0  0  0  0  0  0  0  0  0
   -1.3773    2.3938   -1.5700 H   0  0  0  0  0  0  0  0  0  0  0  0
   -2.2541    2.8186   -3.0407 H   0  0  0  0  0  0  0  0  0  0  0  0
   -3.0684    2.9022   -1.4679 H   0  0  0  0  0  0  0  0  0  0  0  0
  1  2  1  0  0  0  0
  2  3  1  0  0  0  0
  3  4  2  0  0  0  0
  4  5  2  0  0  0  0
  4  6  2  0  0  0  0
  6  7  1  0  0  0  0
  7  8  1  0  0  0  0
  4  9  1  0  0  0  0
  9 10  1  0  0  0  0
 10 11  1  0  0  0  0
 11 12  1  0  0  0  0
 12 13  2  0  0  0  0
 12 14  2  0  0  0  0
 14 15  1  0  0  0  0
 15 16  1  0  0  0  0
 12 17  2  0  0  0  0
 17 18  1  0  0  0  0
 18 19  1  0  0  0  0
  1 20  1  0  0  0  0
  1 21  1  0  0  0  0
  1 22  1  0  0  0  0
  2 23  1  0  0  0  0
  2 24  1  0  0  0  0
  7 25  1  0  0  0  0
  7 26  1  0  0  0  0
  8 27  1  0  0  0  0
  8 28  1  0  0  0  0
  8 29  1  0  0  0  0
 10 30  1  0  0  0  0
 10 31  1  0  0  0  0
 15 32  1  0  0  0  0
 15 33  1  0  0  0  0
 16 34  1  0  0  0  0
 16 35  1  0  0  0  0
 16 36  1  0  0  0  0
 18 37  1  0  0  0  0
 18 38  1  0  0  0  0
 19 39  1  0  0  0  0
 19 40  1  0  0  0  0
 19 41  1  0  0  0  0
M  END
