 xtb: 6.7.1 (edcfbbe)
          04092505213D

 41 40  0     0  0            999 V2000
    4.0350    1.7741   -1.0041 C   0  0  0  0  0  0  0  0  0  0  0  0
    4.1973    1.0942    0.3404 C   0  0  0  0  0  0  0  0  0  0  0  0
    3.4068   -0.0976    0.4300 O   0  0  0  0  0  0  0  0  0  0  0  0
    1.8103   -0.0480    0.4618 P   0  0  0  0  0  0  0  0  0  0  0  0
    1.1544    1.4021    1.6151 S   0  0  0  0  0  0  0  0  0  0  0  0
    1.4539   -1.5231    0.9197 O   0  0  0  0  0  0  0  0  0  0  0  0
    1.3563   -1.8724    2.3149 C   0  0  0  0  0  0  0  0  0  0  0  0
    2.7143   -1.9244    2.9822 C   0  0  0  0  0  0  0  0  0  0  0  0
    1.3354   -0.1829   -1.6072 S   0  0  0  0  0  0  0  0  0  0  0  0
    0.2104   -1.6005   -1.7454 C   0  0  0  0  0  0  0  0  0  0  0  0
   -1.5035   -1.1845   -2.2097 S   0  0  0  0  0  0  0  0  0  0  0  0
   -2.1532   -0.1214   -0.5135 P   0  0  0  0  0  0  0  0  0  0  0  0
   -4.0623    0.3022   -0.4728 S   0  0  0  0  0  0  0  0  0  0  0  0
   -1.1763    1.1299   -0.3690 O   0  0  0  0  0  0  0  0  0  0  0  0
   -1.4706    2.4090   -0.9501 C   0  0  0  0  0  0  0  0  0  0  0  0
   -1.3361    2.3898   -2.4597 C   0  0  0  0  0  0  0  0  0  0  0  0
   -1.5978   -1.0629    0.6463 O   0  0  0  0  0  0  0  0  0  0  0  0
   -2.2973   -1.1777    1.9050 C   0  0  0  0  0  0  0  0  0  0  0  0
   -2.2370    0.1021    2.7118 C   0  0  0  0  0  0  0  0  0  0  0  0
    3.0009    2.0992   -1.1271 H   0  0  0  0  0  0  0  0  0  0  0  0
    4.6861    2.6407   -1.0552 H   0  0  0  0  0  0  0  0  0  0  0  0
    4.2794    1.0868   -1.8096 H   0  0  0  0  0  0  0  0  0  0  0  0
    3.9005    1.7694    1.1506 H   0  0  0  0  0  0  0  0  0  0  0  0
    5.2199    0.7502    0.4997 H   0  0  0  0  0  0  0  0  0  0  0  0
    0.7109   -1.1420    2.8126 H   0  0  0  0  0  0  0  0  0  0  0  0
    0.8743   -2.8516    2.3069 H   0  0  0  0  0  0  0  0  0  0  0  0
    2.6017   -2.3136    3.9894 H   0  0  0  0  0  0  0  0  0  0  0  0
    3.3862   -2.5656    2.4180 H   0  0  0  0  0  0  0  0  0  0  0  0
    3.1423   -0.9249    3.0347 H   0  0  0  0  0  0  0  0  0  0  0  0
    0.2121   -2.1581   -0.8150 H   0  0  0  0  0  0  0  0  0  0  0  0
    0.5754   -2.2037   -2.5732 H   0  0  0  0  0  0  0  0  0  0  0  0
   -2.4856    2.6947   -0.6553 H   0  0  0  0  0  0  0  0  0  0  0  0
   -0.7475    3.0798   -0.4819 H   0  0  0  0  0  0  0  0  0  0  0  0
   -0.3514    2.0303   -2.7500 H   0  0  0  0  0  0  0  0  0  0  0  0
   -2.0927    1.7341   -2.8907 H   0  0  0  0  0  0  0  0  0  0  0  0
   -1.4804    3.3946   -2.8434 H   0  0  0  0  0  0  0  0  0  0  0  0
   -3.3373   -1.4466    1.6960 H   0  0  0  0  0  0  0  0  0  0  0  0
   -1.7943   -2.0036    2.4099 H   0  0  0  0  0  0  0  0  0  0  0  0
   -2.6600   -0.0711    3.6960 H   0  0  0  0  0  0  0  0  0  0  0  0
   -1.2108    0.4485    2.8146 H   0  0  0  0  0  0  0  0  0  0  0  0
   -2.8103    0.8817    2.2117 H   0  0  0  0  0  0  0  0  0  0  0  0
  1  2  1  0  0  0  0
  2  3  1  0  0  0  0
  3  4  1  0  0  0  0
  4  5  2  0  0  0  0
  4  6  2  0  0  0  0
  6  7  1  0  0  0  0
  7  8  1  0  0  0  0
  4  9  1  0  0  0  0
  9 10  1  0  0  0  0
 10 11  1  0  0  0  0
 11 12  1  0  0  0  0
 12 13  2  0  0  0  0
 12 14  1  0  0  0  0
 14 15  1  0  0  0  0
 15 16  1  0  0  0  0
 12 17  1  0  0  0  0
 17 18  1  0  0  0  0
 18 19  1  0  0  0  0
  1 20  1  0  0  0  0
  1 21  1  0  0  0  0
  1 22  1  0  0  0  0
  2 23  1  0  0  0  0
  2 24  1  0  0  0  0
  7 25  1  0  0  0  0
  7 26  1  0  0  0  0
  8 27  1  0  0  0  0
  8 28  1  0  0  0  0
  8 29  1  0  0  0  0
 10 30  1  0  0  0  0
 10 31  1  0  0  0  0
 15 32  1  0  0  0  0
 15 33  1  0  0  0  0
 16 34  1  0  0  0  0
 16 35  1  0  0  0  0
 16 36  1  0  0  0  0
 18 37  1  0  0  0  0
 18 38  1  0  0  0  0
 19 39  1  0  0  0  0
 19 40  1  0  0  0  0
 19 41  1  0  0  0  0
M  END
