 xtb: 6.7.1 (edcfbbe)
          04092505203D

 41 40  0     0  0            999 V2000
    3.4798   -1.4966   -2.7566 C   0  0  0  0  0  0  0  0  0  0  0  0
    3.9674   -0.2490   -2.0490 C   0  0  0  0  0  0  0  0  0  0  0  0
    3.6309   -0.2567   -0.6510 O   0  0  0  0  0  0  0  0  0  0  0  0
    2.1321   -0.1551   -0.1342 P   0  0  0  0  0  0  0  0  0  0  0  0
    1.0256    1.0962   -1.1714 S   0  0  0  0  0  0  0  0  0  0  0  0
    2.3172    0.1765    1.4029 O   0  0  0  0  0  0  0  0  0  0  0  0
    2.4288    1.5217    1.9041 C   0  0  0  0  0  0  0  0  0  0  0  0
    3.7139    2.1862    1.4599 C   0  0  0  0  0  0  0  0  0  0  0  0
    1.5703   -2.1750    0.0313 S   0  0  0  0  0  0  0  0  0  0  0  0
   -0.0893   -2.0142    0.7430 C   0  0  0  0  0  0  0  0  0  0  0  0
   -1.3622   -1.5086   -0.4557 S   0  0  0  0  0  0  0  0  0  0  0  0
   -2.0140    0.3297    0.4150 P   0  0  0  0  0  0  0  0  0  0  0  0
   -1.0560    0.9110    2.0178 S   0  0  0  0  0  0  0  0  0  0  0  0
   -3.5683    0.0577    0.6572 O   0  0  0  0  0  0  0  0  0  0  0  0
   -4.0228   -0.8724    1.6586 C   0  0  0  0  0  0  0  0  0  0  0  0
   -5.5251   -0.7207    1.7851 C   0  0  0  0  0  0  0  0  0  0  0  0
   -2.0824    1.4141   -0.7123 O   0  0  0  0  0  0  0  0  0  0  0  0
   -2.7229    1.1807   -1.9962 C   0  0  0  0  0  0  0  0  0  0  0  0
   -2.1512    2.1777   -2.9808 C   0  0  0  0  0  0  0  0  0  0  0  0
    2.3904   -1.5097   -2.7758 H   0  0  0  0  0  0  0  0  0  0  0  0
    3.8503   -1.5007   -3.7767 H   0  0  0  0  0  0  0  0  0  0  0  0
    3.8300   -2.3860   -2.2388 H   0  0  0  0  0  0  0  0  0  0  0  0
    3.5310    0.6461   -2.5044 H   0  0  0  0  0  0  0  0  0  0  0  0
    5.0558   -0.1784   -2.0556 H   0  0  0  0  0  0  0  0  0  0  0  0
    1.5554    2.0918    1.5701 H   0  0  0  0  0  0  0  0  0  0  0  0
    2.3814    1.3989    2.9871 H   0  0  0  0  0  0  0  0  0  0  0  0
    4.5653    1.5600    1.7135 H   0  0  0  0  0  0  0  0  0  0  0  0
    3.6979    2.3421    0.3818 H   0  0  0  0  0  0  0  0  0  0  0  0
    3.8085    3.1479    1.9544 H   0  0  0  0  0  0  0  0  0  0  0  0
   -0.0711   -1.2895    1.5619 H   0  0  0  0  0  0  0  0  0  0  0  0
   -0.3490   -3.0088    1.0955 H   0  0  0  0  0  0  0  0  0  0  0  0
   -3.7493   -1.8820    1.3376 H   0  0  0  0  0  0  0  0  0  0  0  0
   -3.5142   -0.6441    2.6012 H   0  0  0  0  0  0  0  0  0  0  0  0
   -5.7729    0.2945    2.0816 H   0  0  0  0  0  0  0  0  0  0  0  0
   -6.0010   -0.9359    0.8330 H   0  0  0  0  0  0  0  0  0  0  0  0
   -5.8907   -1.4134    2.5358 H   0  0  0  0  0  0  0  0  0  0  0  0
   -2.5166    0.1519   -2.3057 H   0  0  0  0  0  0  0  0  0  0  0  0
   -3.7974    1.3123   -1.8563 H   0  0  0  0  0  0  0  0  0  0  0  0
   -2.3620    3.1910   -2.6517 H   0  0  0  0  0  0  0  0  0  0  0  0
   -1.0727    2.0523   -3.0452 H   0  0  0  0  0  0  0  0  0  0  0  0
   -2.5949    2.0114   -3.9568 H   0  0  0  0  0  0  0  0  0  0  0  0
  1  2  1  0  0  0  0
  2  3  1  0  0  0  0
  3  4  2  0  0  0  0
  4  5  2  0  0  0  0
  4  6  2  0  0  0  0
  6  7  1  0  0  0  0
  7  8  1  0  0  0  0
  4  9  1  0  0  0  0
  9 10  1  0  0  0  0
 10 11  1  0  0  0  0
 11 12  1  0  0  0  0
 12 13  2  0  0  0  0
 12 14  2  0  0  0  0
 14 15  1  0  0  0  0
 15 16  1  0  0  0  0
 12 17  2  0  0  0  0
 17 18  1  0  0  0  0
 18 19  1  0  0  0  0
  1 20  1  0  0  0  0
  1 21  1  0  0  0  0
  1 22  1  0  0  0  0
  2 23  1  0  0  0  0
  2 24  1  0  0  0  0
  7 25  1  0  0  0  0
  7 26  1  0  0  0  0
  8 27  1  0  0  0  0
  8 28  1  0  0  0  0
  8 29  1  0  0  0  0
 10 30  1  0  0  0  0
 10 31  1  0  0  0  0
 15 32  1  0  0  0  0
 15 33  1  0  0  0  0
 16 34  1  0  0  0  0
 16 35  1  0  0  0  0
 16 36  1  0  0  0  0
 18 37  1  0  0  0  0
 18 38  1  0  0  0  0
 19 39  1  0  0  0  0
 19 40  1  0  0  0  0
 19 41  1  0  0  0  0
M  END
