 xtb: 6.7.1 (edcfbbe)
          04092505213D

 41 40  0     0  0            999 V2000
    1.5618   -2.2070   -2.0168 C   0  0  0  0  0  0  0  0  0  0  0  0
    2.1284   -0.8363   -2.3217 C   0  0  0  0  0  0  0  0  0  0  0  0
    1.7439    0.1582   -1.3389 O   0  0  0  0  0  0  0  0  0  0  0  0
    2.0805    0.0898    0.1983 P   0  0  0  0  0  0  0  0  0  0  0  0
    2.1785    1.8361    1.0801 S   0  0  0  0  0  0  0  0  0  0  0  0
    3.4593   -0.7035    0.1826 O   0  0  0  0  0  0  0  0  0  0  0  0
    4.2131   -0.8967    1.3959 C   0  0  0  0  0  0  0  0  0  0  0  0
    5.6248   -1.2896    1.0101 C   0  0  0  0  0  0  0  0  0  0  0  0
    0.7728   -1.3060    1.1459 S   0  0  0  0  0  0  0  0  0  0  0  0
   -0.2703   -0.1931    2.1323 C   0  0  0  0  0  0  0  0  0  0  0  0
   -2.0327   -0.4178    1.7992 S   0  0  0  0  0  0  0  0  0  0  0  0
   -2.0853    0.2475   -0.2064 P   0  0  0  0  0  0  0  0  0  0  0  0
   -0.9401    1.7956   -0.6234 S   0  0  0  0  0  0  0  0  0  0  0  0
   -3.6269    0.4584   -0.5218 O   0  0  0  0  0  0  0  0  0  0  0  0
   -4.2904    1.7137   -0.2945 C   0  0  0  0  0  0  0  0  0  0  0  0
   -4.4533    2.0126    1.1814 C   0  0  0  0  0  0  0  0  0  0  0  0
   -1.7784   -1.1051   -0.9755 O   0  0  0  0  0  0  0  0  0  0  0  0
   -2.3560   -1.4579   -2.2543 C   0  0  0  0  0  0  0  0  0  0  0  0
   -1.9482   -0.4937   -3.3486 C   0  0  0  0  0  0  0  0  0  0  0  0
    1.7645   -2.8691   -2.8527 H   0  0  0  0  0  0  0  0  0  0  0  0
    2.0211   -2.6151   -1.1183 H   0  0  0  0  0  0  0  0  0  0  0  0
    0.4885   -2.1453   -1.8559 H   0  0  0  0  0  0  0  0  0  0  0  0
    1.7283   -0.4274   -3.2515 H   0  0  0  0  0  0  0  0  0  0  0  0
    3.2184   -0.8628   -2.3691 H   0  0  0  0  0  0  0  0  0  0  0  0
    4.1971    0.0373    1.9674 H   0  0  0  0  0  0  0  0  0  0  0  0
    3.7231   -1.6816    1.9782 H   0  0  0  0  0  0  0  0  0  0  0  0
    6.2063   -1.4510    1.9116 H   0  0  0  0  0  0  0  0  0  0  0  0
    5.6107   -2.2028    0.4224 H   0  0  0  0  0  0  0  0  0  0  0  0
    6.0852   -0.4989    0.4243 H   0  0  0  0  0  0  0  0  0  0  0  0
    0.0302    0.8375    1.9197 H   0  0  0  0  0  0  0  0  0  0  0  0
   -0.1323   -0.4303    3.1841 H   0  0  0  0  0  0  0  0  0  0  0  0
   -3.7125    2.5038   -0.7850 H   0  0  0  0  0  0  0  0  0  0  0  0
   -5.2545    1.5930   -0.7905 H   0  0  0  0  0  0  0  0  0  0  0  0
   -5.0750    2.8938    1.3027 H   0  0  0  0  0  0  0  0  0  0  0  0
   -4.9146    1.1696    1.6893 H   0  0  0  0  0  0  0  0  0  0  0  0
   -3.4804    2.2035    1.6321 H   0  0  0  0  0  0  0  0  0  0  0  0
   -1.9750   -2.4641   -2.4378 H   0  0  0  0  0  0  0  0  0  0  0  0
   -3.4414   -1.4871   -2.1432 H   0  0  0  0  0  0  0  0  0  0  0  0
   -2.3383    0.5009   -3.1343 H   0  0  0  0  0  0  0  0  0  0  0  0
   -0.8648   -0.4262   -3.4121 H   0  0  0  0  0  0  0  0  0  0  0  0
   -2.3446   -0.8351   -4.2997 H   0  0  0  0  0  0  0  0  0  0  0  0
  1  2  1  0  0  0  0
  2  3  1  0  0  0  0
  3  4  2  0  0  0  0
  4  5  2  0  0  0  0
  4  6  2  0  0  0  0
  6  7  1  0  0  0  0
  7  8  1  0  0  0  0
  4  9  1  0  0  0  0
  9 10  1  0  0  0  0
 10 11  1  0  0  0  0
 11 12  1  0  0  0  0
 12 13  2  0  0  0  0
 12 14  2  0  0  0  0
 14 15  1  0  0  0  0
 15 16  1  0  0  0  0
 12 17  2  0  0  0  0
 17 18  1  0  0  0  0
 18 19  1  0  0  0  0
  1 20  1  0  0  0  0
  1 21  1  0  0  0  0
  1 22  1  0  0  0  0
  2 23  1  0  0  0  0
  2 24  1  0  0  0  0
  7 25  1  0  0  0  0
  7 26  1  0  0  0  0
  8 27  1  0  0  0  0
  8 28  1  0  0  0  0
  8 29  1  0  0  0  0
 10 30  1  0  0  0  0
 10 31  1  0  0  0  0
 15 32  1  0  0  0  0
 15 33  1  0  0  0  0
 16 34  1  0  0  0  0
 16 35  1  0  0  0  0
 16 36  1  0  0  0  0
 18 37  1  0  0  0  0
 18 38  1  0  0  0  0
 19 39  1  0  0  0  0
 19 40  1  0  0  0  0
 19 41  1  0  0  0  0
M  END
