 xtb: 6.7.1 (edcfbbe)
          04092505213D

 41 40  0     0  0            999 V2000
    1.4703    2.8885    1.5045 C   0  0  0  0  0  0  0  0  0  0  0  0
    2.2292    1.5812    1.5974 C   0  0  0  0  0  0  0  0  0  0  0  0
    1.4916    0.6013    0.8347 O   0  0  0  0  0  0  0  0  0  0  0  0
    1.8894   -0.9286    0.8403 P   0  0  0  0  0  0  0  0  0  0  0  0
    2.1827   -1.7447    2.5967 S   0  0  0  0  0  0  0  0  0  0  0  0
    3.1795   -0.9189   -0.1053 O   0  0  0  0  0  0  0  0  0  0  0  0
    4.1170   -2.0075   -0.1129 C   0  0  0  0  0  0  0  0  0  0  0  0
    3.5356   -3.2478   -0.7614 C   0  0  0  0  0  0  0  0  0  0  0  0
    0.3014   -1.6925   -0.3169 S   0  0  0  0  0  0  0  0  0  0  0  0
    0.5034   -0.7114   -1.8311 C   0  0  0  0  0  0  0  0  0  0  0  0
   -0.0020    1.0313   -1.6858 S   0  0  0  0  0  0  0  0  0  0  0  0
   -1.8728    0.7236   -0.7920 P   0  0  0  0  0  0  0  0  0  0  0  0
   -2.9457   -0.7960   -1.4283 S   0  0  0  0  0  0  0  0  0  0  0  0
   -2.5906    2.1341   -0.9499 O   0  0  0  0  0  0  0  0  0  0  0  0
   -3.2455    2.5269   -2.1738 C   0  0  0  0  0  0  0  0  0  0  0  0
   -4.2615    3.6002   -1.8383 C   0  0  0  0  0  0  0  0  0  0  0  0
   -1.5109    0.7469    0.7492 O   0  0  0  0  0  0  0  0  0  0  0  0
   -2.3944    0.2158    1.7603 C   0  0  0  0  0  0  0  0  0  0  0  0
   -1.5625   -0.1719    2.9651 C   0  0  0  0  0  0  0  0  0  0  0  0
    0.4571    2.7564    1.8749 H   0  0  0  0  0  0  0  0  0  0  0  0
    1.9778    3.6418    2.0980 H   0  0  0  0  0  0  0  0  0  0  0  0
    1.4189    3.2137    0.4689 H   0  0  0  0  0  0  0  0  0  0  0  0
    2.3078    1.2252    2.6301 H   0  0  0  0  0  0  0  0  0  0  0  0
    3.2315    1.6675    1.1706 H   0  0  0  0  0  0  0  0  0  0  0  0
    4.9708   -1.6198   -0.6701 H   0  0  0  0  0  0  0  0  0  0  0  0
    4.4093   -2.2183    0.9207 H   0  0  0  0  0  0  0  0  0  0  0  0
    4.2912   -4.0263   -0.7885 H   0  0  0  0  0  0  0  0  0  0  0  0
    2.6845   -3.6035   -0.1807 H   0  0  0  0  0  0  0  0  0  0  0  0
    3.2051   -3.0342   -1.7746 H   0  0  0  0  0  0  0  0  0  0  0  0
   -0.1236   -1.2050   -2.5720 H   0  0  0  0  0  0  0  0  0  0  0  0
    1.5476   -0.7013   -2.1336 H   0  0  0  0  0  0  0  0  0  0  0  0
   -2.4816    2.9003   -2.8604 H   0  0  0  0  0  0  0  0  0  0  0  0
   -3.7237    1.6440   -2.6114 H   0  0  0  0  0  0  0  0  0  0  0  0
   -3.7671    4.4418   -1.3619 H   0  0  0  0  0  0  0  0  0  0  0  0
   -4.7410    3.9338   -2.7526 H   0  0  0  0  0  0  0  0  0  0  0  0
   -5.0149    3.2051   -1.1625 H   0  0  0  0  0  0  0  0  0  0  0  0
   -3.1201    0.9931    2.0116 H   0  0  0  0  0  0  0  0  0  0  0  0
   -2.9224   -0.6496    1.3443 H   0  0  0  0  0  0  0  0  0  0  0  0
   -2.2142   -0.5678    3.7371 H   0  0  0  0  0  0  0  0  0  0  0  0
   -0.8328   -0.9336    2.6961 H   0  0  0  0  0  0  0  0  0  0  0  0
   -1.0322    0.6941    3.3516 H   0  0  0  0  0  0  0  0  0  0  0  0
  1  2  1  0  0  0  0
  2  3  1  0  0  0  0
  3  4  2  0  0  0  0
  4  5  2  0  0  0  0
  4  6  2  0  0  0  0
  6  7  1  0  0  0  0
  7  8  1  0  0  0  0
  4  9  1  0  0  0  0
  9 10  1  0  0  0  0
 10 11  1  0  0  0  0
 11 12  1  0  0  0  0
 12 13  2  0  0  0  0
 12 14  2  0  0  0  0
 14 15  1  0  0  0  0
 15 16  1  0  0  0  0
 12 17  2  0  0  0  0
 17 18  1  0  0  0  0
 18 19  1  0  0  0  0
  1 20  1  0  0  0  0
  1 21  1  0  0  0  0
  1 22  1  0  0  0  0
  2 23  1  0  0  0  0
  2 24  1  0  0  0  0
  7 25  1  0  0  0  0
  7 26  1  0  0  0  0
  8 27  1  0  0  0  0
  8 28  1  0  0  0  0
  8 29  1  0  0  0  0
 10 30  1  0  0  0  0
 10 31  1  0  0  0  0
 15 32  1  0  0  0  0
 15 33  1  0  0  0  0
 16 34  1  0  0  0  0
 16 35  1  0  0  0  0
 16 36  1  0  0  0  0
 18 37  1  0  0  0  0
 18 38  1  0  0  0  0
 19 39  1  0  0  0  0
 19 40  1  0  0  0  0
 19 41  1  0  0  0  0
M  END
