 xtb: 6.7.1 (edcfbbe)
          04092505203D

 41 40  0     0  0            999 V2000
    4.4802    0.2148   -2.8903 C   0  0  0  0  0  0  0  0  0  0  0  0
    3.8218   -0.9579   -2.1901 C   0  0  0  0  0  0  0  0  0  0  0  0
    3.5447   -0.6189   -0.8148 O   0  0  0  0  0  0  0  0  0  0  0  0
    2.0761   -0.3243   -0.2828 P   0  0  0  0  0  0  0  0  0  0  0  0
    0.9980    0.7524   -1.5286 S   0  0  0  0  0  0  0  0  0  0  0  0
    2.3571    0.2956    1.1414 O   0  0  0  0  0  0  0  0  0  0  0  0
    2.7263    1.6823    1.3124 C   0  0  0  0  0  0  0  0  0  0  0  0
    2.6003    2.0144    2.7836 C   0  0  0  0  0  0  0  0  0  0  0  0
    1.3999   -2.2337    0.2594 S   0  0  0  0  0  0  0  0  0  0  0  0
   -0.2218   -1.8301    0.9763 C   0  0  0  0  0  0  0  0  0  0  0  0
   -1.5092   -1.4663   -0.2527 S   0  0  0  0  0  0  0  0  0  0  0  0
   -1.9934    0.5438    0.2785 P   0  0  0  0  0  0  0  0  0  0  0  0
   -0.8673    1.3834    1.6402 S   0  0  0  0  0  0  0  0  0  0  0  0
   -3.5331    0.4987    0.6982 O   0  0  0  0  0  0  0  0  0  0  0  0
   -3.9864    0.2347    2.0334 C   0  0  0  0  0  0  0  0  0  0  0  0
   -3.7234   -1.1949    2.4640 C   0  0  0  0  0  0  0  0  0  0  0  0
   -2.0803    1.3746   -1.0518 O   0  0  0  0  0  0  0  0  0  0  0  0
   -2.4361    0.8826   -2.3642 C   0  0  0  0  0  0  0  0  0  0  0  0
   -3.7705    0.1705   -2.3773 C   0  0  0  0  0  0  0  0  0  0  0  0
    5.3792    0.5121   -2.3579 H   0  0  0  0  0  0  0  0  0  0  0  0
    4.7396   -0.0735   -3.9037 H   0  0  0  0  0  0  0  0  0  0  0  0
    3.7940    1.0586   -2.9252 H   0  0  0  0  0  0  0  0  0  0  0  0
    4.4836   -1.8241   -2.1450 H   0  0  0  0  0  0  0  0  0  0  0  0
    2.8890   -1.2322   -2.6901 H   0  0  0  0  0  0  0  0  0  0  0  0
    3.7512    1.8050    0.9545 H   0  0  0  0  0  0  0  0  0  0  0  0
    2.0547    2.2988    0.7050 H   0  0  0  0  0  0  0  0  0  0  0  0
    1.5632    1.9142    3.0951 H   0  0  0  0  0  0  0  0  0  0  0  0
    3.2156    1.3381    3.3693 H   0  0  0  0  0  0  0  0  0  0  0  0
    2.9248    3.0368    2.9462 H   0  0  0  0  0  0  0  0  0  0  0  0
   -0.1147   -0.9691    1.6425 H   0  0  0  0  0  0  0  0  0  0  0  0
   -0.5206   -2.7243    1.5169 H   0  0  0  0  0  0  0  0  0  0  0  0
   -3.4941    0.9384    2.7129 H   0  0  0  0  0  0  0  0  0  0  0  0
   -5.0550    0.4501    1.9906 H   0  0  0  0  0  0  0  0  0  0  0  0
   -4.2235   -1.3798    3.4093 H   0  0  0  0  0  0  0  0  0  0  0  0
   -4.0966   -1.8898    1.7164 H   0  0  0  0  0  0  0  0  0  0  0  0
   -2.6545   -1.3538    2.5960 H   0  0  0  0  0  0  0  0  0  0  0  0
   -2.4504    1.7895   -2.9704 H   0  0  0  0  0  0  0  0  0  0  0  0
   -1.6290    0.2306   -2.7100 H   0  0  0  0  0  0  0  0  0  0  0  0
   -4.5448    0.8180   -1.9742 H   0  0  0  0  0  0  0  0  0  0  0  0
   -4.0177   -0.0972   -3.3999 H   0  0  0  0  0  0  0  0  0  0  0  0
   -3.7186   -0.7363   -1.7766 H   0  0  0  0  0  0  0  0  0  0  0  0
  1  2  1  0  0  0  0
  2  3  1  0  0  0  0
  3  4  2  0  0  0  0
  4  5  2  0  0  0  0
  4  6  2  0  0  0  0
  6  7  1  0  0  0  0
  7  8  1  0  0  0  0
  4  9  1  0  0  0  0
  9 10  1  0  0  0  0
 10 11  1  0  0  0  0
 11 12  1  0  0  0  0
 12 13  2  0  0  0  0
 12 14  2  0  0  0  0
 14 15  1  0  0  0  0
 15 16  1  0  0  0  0
 12 17  2  0  0  0  0
 17 18  1  0  0  0  0
 18 19  1  0  0  0  0
  1 20  1  0  0  0  0
  1 21  1  0  0  0  0
  1 22  1  0  0  0  0
  2 23  1  0  0  0  0
  2 24  1  0  0  0  0
  7 25  1  0  0  0  0
  7 26  1  0  0  0  0
  8 27  1  0  0  0  0
  8 28  1  0  0  0  0
  8 29  1  0  0  0  0
 10 30  1  0  0  0  0
 10 31  1  0  0  0  0
 15 32  1  0  0  0  0
 15 33  1  0  0  0  0
 16 34  1  0  0  0  0
 16 35  1  0  0  0  0
 16 36  1  0  0  0  0
 18 37  1  0  0  0  0
 18 38  1  0  0  0  0
 19 39  1  0  0  0  0
 19 40  1  0  0  0  0
 19 41  1  0  0  0  0
M  END
