 xtb: 6.7.1 (edcfbbe)
          04092505213D

 41 40  0     0  0            999 V2000
    5.0395   -0.4667   -2.6019 C   0  0  0  0  0  0  0  0  0  0  0  0
    3.5677   -0.8203   -2.5095 C   0  0  0  0  0  0  0  0  0  0  0  0
    3.1877   -0.8531   -1.1232 O   0  0  0  0  0  0  0  0  0  0  0  0
    1.8450   -0.2224   -0.5366 P   0  0  0  0  0  0  0  0  0  0  0  0
    1.3274    1.3917   -1.5315 S   0  0  0  0  0  0  0  0  0  0  0  0
    2.2037   -0.0800    0.9951 O   0  0  0  0  0  0  0  0  0  0  0  0
    2.9371    1.0648    1.4870 C   0  0  0  0  0  0  0  0  0  0  0  0
    2.7414    1.1330    2.9863 C   0  0  0  0  0  0  0  0  0  0  0  0
    0.6162   -1.9403   -0.4569 S   0  0  0  0  0  0  0  0  0  0  0  0
   -0.2651   -1.8350    1.1404 C   0  0  0  0  0  0  0  0  0  0  0  0
   -2.0449   -1.5973    0.9580 S   0  0  0  0  0  0  0  0  0  0  0  0
   -1.9649    0.4685    0.4656 P   0  0  0  0  0  0  0  0  0  0  0  0
   -0.6463    1.5078    1.4673 S   0  0  0  0  0  0  0  0  0  0  0  0
   -3.4840    0.9221    0.5466 O   0  0  0  0  0  0  0  0  0  0  0  0
   -4.3783    0.6575    1.6462 C   0  0  0  0  0  0  0  0  0  0  0  0
   -3.8354    1.1374    2.9754 C   0  0  0  0  0  0  0  0  0  0  0  0
   -1.6941    0.5657   -1.0827 O   0  0  0  0  0  0  0  0  0  0  0  0
   -2.5545   -0.0459   -2.0799 C   0  0  0  0  0  0  0  0  0  0  0  0
   -1.6854   -0.6345   -3.1720 C   0  0  0  0  0  0  0  0  0  0  0  0
    5.3483   -0.5019   -3.6415 H   0  0  0  0  0  0  0  0  0  0  0  0
    5.2083    0.5344   -2.2133 H   0  0  0  0  0  0  0  0  0  0  0  0
    5.6285   -1.1744   -2.0257 H   0  0  0  0  0  0  0  0  0  0  0  0
    3.3687   -1.8121   -2.9217 H   0  0  0  0  0  0  0  0  0  0  0  0
    2.9509   -0.0768   -3.0261 H   0  0  0  0  0  0  0  0  0  0  0  0
    3.9874    0.9267    1.2196 H   0  0  0  0  0  0  0  0  0  0  0  0
    2.5516    1.9629    0.9923 H   0  0  0  0  0  0  0  0  0  0  0  0
    3.0614    0.2023    3.4455 H   0  0  0  0  0  0  0  0  0  0  0  0
    3.3288    1.9546    3.3824 H   0  0  0  0  0  0  0  0  0  0  0  0
    1.6915    1.3040    3.2124 H   0  0  0  0  0  0  0  0  0  0  0  0
    0.1524   -1.0140    1.7236 H   0  0  0  0  0  0  0  0  0  0  0  0
   -0.1298   -2.7920    1.6364 H   0  0  0  0  0  0  0  0  0  0  0  0
   -5.2871    1.1937    1.3679 H   0  0  0  0  0  0  0  0  0  0  0  0
   -4.5725   -0.4181    1.6730 H   0  0  0  0  0  0  0  0  0  0  0  0
   -2.9387    0.5789    3.2395 H   0  0  0  0  0  0  0  0  0  0  0  0
   -3.5781    2.1927    2.9219 H   0  0  0  0  0  0  0  0  0  0  0  0
   -4.5858    0.9883    3.7450 H   0  0  0  0  0  0  0  0  0  0  0  0
   -3.1672   -0.8138   -1.5985 H   0  0  0  0  0  0  0  0  0  0  0  0
   -3.1968    0.7487   -2.4630 H   0  0  0  0  0  0  0  0  0  0  0  0
   -2.3184   -0.9869   -3.9797 H   0  0  0  0  0  0  0  0  0  0  0  0
   -1.0061    0.1263   -3.5492 H   0  0  0  0  0  0  0  0  0  0  0  0
   -1.0977   -1.4650   -2.7868 H   0  0  0  0  0  0  0  0  0  0  0  0
  1  2  1  0  0  0  0
  2  3  1  0  0  0  0
  3  4  2  0  0  0  0
  4  5  2  0  0  0  0
  4  6  2  0  0  0  0
  6  7  1  0  0  0  0
  7  8  1  0  0  0  0
  4  9  1  0  0  0  0
  9 10  1  0  0  0  0
 10 11  1  0  0  0  0
 11 12  1  0  0  0  0
 12 13  2  0  0  0  0
 12 14  2  0  0  0  0
 14 15  1  0  0  0  0
 15 16  1  0  0  0  0
 12 17  2  0  0  0  0
 17 18  1  0  0  0  0
 18 19  1  0  0  0  0
  1 20  1  0  0  0  0
  1 21  1  0  0  0  0
  1 22  1  0  0  0  0
  2 23  1  0  0  0  0
  2 24  1  0  0  0  0
  7 25  1  0  0  0  0
  7 26  1  0  0  0  0
  8 27  1  0  0  0  0
  8 28  1  0  0  0  0
  8 29  1  0  0  0  0
 10 30  1  0  0  0  0
 10 31  1  0  0  0  0
 15 32  1  0  0  0  0
 15 33  1  0  0  0  0
 16 34  1  0  0  0  0
 16 35  1  0  0  0  0
 16 36  1  0  0  0  0
 18 37  1  0  0  0  0
 18 38  1  0  0  0  0
 19 39  1  0  0  0  0
 19 40  1  0  0  0  0
 19 41  1  0  0  0  0
M  END
