 xtb: 6.7.1 (edcfbbe)
          04092505213D

 41 40  0     0  0            999 V2000
    5.4771    0.8035   -0.3445 C   0  0  0  0  0  0  0  0  0  0  0  0
    4.9271   -0.5451   -0.7577 C   0  0  0  0  0  0  0  0  0  0  0  0
    3.7013   -0.8617   -0.0653 O   0  0  0  0  0  0  0  0  0  0  0  0
    2.3583   -0.0704   -0.3290 P   0  0  0  0  0  0  0  0  0  0  0  0
    2.0795    0.5271   -2.1786 S   0  0  0  0  0  0  0  0  0  0  0  0
    2.4499    1.0731    0.7724 O   0  0  0  0  0  0  0  0  0  0  0  0
    1.5150    2.1606    0.8677 C   0  0  0  0  0  0  0  0  0  0  0  0
    2.1554    3.2501    1.7028 C   0  0  0  0  0  0  0  0  0  0  0  0
    1.0131   -1.4795    0.4793 S   0  0  0  0  0  0  0  0  0  0  0  0
   -0.0069   -1.8507   -0.9952 C   0  0  0  0  0  0  0  0  0  0  0  0
   -1.7448   -2.0251   -0.5594 S   0  0  0  0  0  0  0  0  0  0  0  0
   -2.0901   -0.0158    0.0725 P   0  0  0  0  0  0  0  0  0  0  0  0
   -1.3188    1.3734   -1.0689 S   0  0  0  0  0  0  0  0  0  0  0  0
   -1.5835    0.1014    1.5574 O   0  0  0  0  0  0  0  0  0  0  0  0
   -2.0306   -0.7774    2.6236 C   0  0  0  0  0  0  0  0  0  0  0  0
   -3.1293   -0.1163    3.4288 C   0  0  0  0  0  0  0  0  0  0  0  0
   -3.6678    0.0124    0.2289 O   0  0  0  0  0  0  0  0  0  0  0  0
   -4.5329   -0.0351   -0.9259 C   0  0  0  0  0  0  0  0  0  0  0  0
   -5.9390    0.2857   -0.4620 C   0  0  0  0  0  0  0  0  0  0  0  0
    6.4452    0.9566   -0.8111 H   0  0  0  0  0  0  0  0  0  0  0  0
    4.7990    1.5921   -0.6689 H   0  0  0  0  0  0  0  0  0  0  0  0
    5.5814    0.8516    0.7361 H   0  0  0  0  0  0  0  0  0  0  0  0
    5.5973   -1.3602   -0.4823 H   0  0  0  0  0  0  0  0  0  0  0  0
    4.7301   -0.5688   -1.8342 H   0  0  0  0  0  0  0  0  0  0  0  0
    1.2734    2.5120   -0.1416 H   0  0  0  0  0  0  0  0  0  0  0  0
    0.5952    1.7892    1.3309 H   0  0  0  0  0  0  0  0  0  0  0  0
    3.0549    3.6151    1.2153 H   0  0  0  0  0  0  0  0  0  0  0  0
    1.4519    4.0682    1.8161 H   0  0  0  0  0  0  0  0  0  0  0  0
    2.4170    2.8580    2.6813 H   0  0  0  0  0  0  0  0  0  0  0  0
    0.3025   -2.8049   -1.4136 H   0  0  0  0  0  0  0  0  0  0  0  0
    0.1174   -1.0393   -1.7187 H   0  0  0  0  0  0  0  0  0  0  0  0
   -2.3686   -1.7204    2.1860 H   0  0  0  0  0  0  0  0  0  0  0  0
   -1.1364   -0.9526    3.2245 H   0  0  0  0  0  0  0  0  0  0  0  0
   -2.7837    0.8357    3.8220 H   0  0  0  0  0  0  0  0  0  0  0  0
   -3.9999    0.0585    2.8026 H   0  0  0  0  0  0  0  0  0  0  0  0
   -3.4037   -0.7668    4.2533 H   0  0  0  0  0  0  0  0  0  0  0  0
   -4.1730    0.6937   -1.6592 H   0  0  0  0  0  0  0  0  0  0  0  0
   -4.4716   -1.0376   -1.3576 H   0  0  0  0  0  0  0  0  0  0  0  0
   -6.2628   -0.4434    0.2750 H   0  0  0  0  0  0  0  0  0  0  0  0
   -5.9690    1.2766   -0.0177 H   0  0  0  0  0  0  0  0  0  0  0  0
   -6.6095    0.2558   -1.3145 H   0  0  0  0  0  0  0  0  0  0  0  0
  1  2  1  0  0  0  0
  2  3  1  0  0  0  0
  3  4  2  0  0  0  0
  4  5  2  0  0  0  0
  4  6  2  0  0  0  0
  6  7  1  0  0  0  0
  7  8  1  0  0  0  0
  4  9  1  0  0  0  0
  9 10  1  0  0  0  0
 10 11  1  0  0  0  0
 11 12  1  0  0  0  0
 12 13  2  0  0  0  0
 12 14  2  0  0  0  0
 14 15  1  0  0  0  0
 15 16  1  0  0  0  0
 12 17  2  0  0  0  0
 17 18  1  0  0  0  0
 18 19  1  0  0  0  0
  1 20  1  0  0  0  0
  1 21  1  0  0  0  0
  1 22  1  0  0  0  0
  2 23  1  0  0  0  0
  2 24  1  0  0  0  0
  7 25  1  0  0  0  0
  7 26  1  0  0  0  0
  8 27  1  0  0  0  0
  8 28  1  0  0  0  0
  8 29  1  0  0  0  0
 10 30  1  0  0  0  0
 10 31  1  0  0  0  0
 15 32  1  0  0  0  0
 15 33  1  0  0  0  0
 16 34  1  0  0  0  0
 16 35  1  0  0  0  0
 16 36  1  0  0  0  0
 18 37  1  0  0  0  0
 18 38  1  0  0  0  0
 19 39  1  0  0  0  0
 19 40  1  0  0  0  0
 19 41  1  0  0  0  0
M  END
