 xtb: 6.7.1 (edcfbbe)
          04092505203D

 41 40  0     0  0            999 V2000
    4.1935   -0.1414   -2.3480 C   0  0  0  0  0  0  0  0  0  0  0  0
    4.3722    0.5982   -1.0377 C   0  0  0  0  0  0  0  0  0  0  0  0
    3.6900   -0.0493    0.0488 O   0  0  0  0  0  0  0  0  0  0  0  0
    2.1058   -0.1494    0.1320 P   0  0  0  0  0  0  0  0  0  0  0  0
    1.1554    1.4827   -0.4289 S   0  0  0  0  0  0  0  0  0  0  0  0
    1.8858   -0.5918    1.6360 O   0  0  0  0  0  0  0  0  0  0  0  0
    1.7218    0.3550    2.7096 C   0  0  0  0  0  0  0  0  0  0  0  0
    3.0200    1.0586    3.0458 C   0  0  0  0  0  0  0  0  0  0  0  0
    1.6691   -1.9748   -0.8174 S   0  0  0  0  0  0  0  0  0  0  0  0
   -0.1010   -1.7380   -1.1270 C   0  0  0  0  0  0  0  0  0  0  0  0
   -1.0517   -1.3707    0.3798 S   0  0  0  0  0  0  0  0  0  0  0  0
   -2.1975    0.3050   -0.3089 P   0  0  0  0  0  0  0  0  0  0  0  0
   -1.9810    0.8300   -2.1777 S   0  0  0  0  0  0  0  0  0  0  0  0
   -1.9084    1.4605    0.7211 O   0  0  0  0  0  0  0  0  0  0  0  0
   -2.1431    1.3169    2.1462 C   0  0  0  0  0  0  0  0  0  0  0  0
   -1.7276    2.6147    2.8069 C   0  0  0  0  0  0  0  0  0  0  0  0
   -3.6909   -0.0817    0.1013 O   0  0  0  0  0  0  0  0  0  0  0  0
   -4.5768   -0.8076   -0.7678 C   0  0  0  0  0  0  0  0  0  0  0  0
   -4.0818   -2.2085   -1.0640 C   0  0  0  0  0  0  0  0  0  0  0  0
    4.4607   -1.1886   -2.2306 H   0  0  0  0  0  0  0  0  0  0  0  0
    3.1551   -0.0786   -2.6723 H   0  0  0  0  0  0  0  0  0  0  0  0
    4.8247    0.3112   -3.1061 H   0  0  0  0  0  0  0  0  0  0  0  0
    3.9946    1.6225   -1.1214 H   0  0  0  0  0  0  0  0  0  0  0  0
    5.4159    0.6106   -0.7206 H   0  0  0  0  0  0  0  0  0  0  0  0
    0.9566    1.0806    2.4150 H   0  0  0  0  0  0  0  0  0  0  0  0
    1.3609   -0.2521    3.5410 H   0  0  0  0  0  0  0  0  0  0  0  0
    3.8029    0.3287    3.2326 H   0  0  0  0  0  0  0  0  0  0  0  0
    3.3233    1.6944    2.2151 H   0  0  0  0  0  0  0  0  0  0  0  0
    2.8780    1.6733    3.9292 H   0  0  0  0  0  0  0  0  0  0  0  0
   -0.4486   -2.6816   -1.5408 H   0  0  0  0  0  0  0  0  0  0  0  0
   -0.2532   -0.9173   -1.8345 H   0  0  0  0  0  0  0  0  0  0  0  0
   -3.2033    1.1069    2.2995 H   0  0  0  0  0  0  0  0  0  0  0  0
   -1.5520    0.4684    2.5050 H   0  0  0  0  0  0  0  0  0  0  0  0
   -1.8315    2.5180    3.8826 H   0  0  0  0  0  0  0  0  0  0  0  0
   -0.6941    2.8458    2.5613 H   0  0  0  0  0  0  0  0  0  0  0  0
   -2.3526    3.4293    2.4527 H   0  0  0  0  0  0  0  0  0  0  0  0
   -5.5207   -0.8203   -0.2209 H   0  0  0  0  0  0  0  0  0  0  0  0
   -4.6902   -0.2378   -1.6950 H   0  0  0  0  0  0  0  0  0  0  0  0
   -3.8551   -2.7352   -0.1405 H   0  0  0  0  0  0  0  0  0  0  0  0
   -4.8481   -2.7492   -1.6100 H   0  0  0  0  0  0  0  0  0  0  0  0
   -3.1829   -2.1588   -1.6772 H   0  0  0  0  0  0  0  0  0  0  0  0
  1  2  1  0  0  0  0
  2  3  1  0  0  0  0
  3  4  2  0  0  0  0
  4  5  2  0  0  0  0
  4  6  2  0  0  0  0
  6  7  1  0  0  0  0
  7  8  1  0  0  0  0
  4  9  1  0  0  0  0
  9 10  1  0  0  0  0
 10 11  1  0  0  0  0
 11 12  1  0  0  0  0
 12 13  2  0  0  0  0
 12 14  2  0  0  0  0
 14 15  1  0  0  0  0
 15 16  1  0  0  0  0
 12 17  2  0  0  0  0
 17 18  1  0  0  0  0
 18 19  1  0  0  0  0
  1 20  1  0  0  0  0
  1 21  1  0  0  0  0
  1 22  1  0  0  0  0
  2 23  1  0  0  0  0
  2 24  1  0  0  0  0
  7 25  1  0  0  0  0
  7 26  1  0  0  0  0
  8 27  1  0  0  0  0
  8 28  1  0  0  0  0
  8 29  1  0  0  0  0
 10 30  1  0  0  0  0
 10 31  1  0  0  0  0
 15 32  1  0  0  0  0
 15 33  1  0  0  0  0
 16 34  1  0  0  0  0
 16 35  1  0  0  0  0
 16 36  1  0  0  0  0
 18 37  1  0  0  0  0
 18 38  1  0  0  0  0
 19 39  1  0  0  0  0
 19 40  1  0  0  0  0
 19 41  1  0  0  0  0
M  END
