 xtb: 6.7.1 (edcfbbe)
          04092505203D

 41 40  0     0  0            999 V2000
    4.5762   -1.1297   -1.7053 C   0  0  0  0  0  0  0  0  0  0  0  0
    3.6553   -2.1200   -1.0227 C   0  0  0  0  0  0  0  0  0  0  0  0
    2.9408   -1.5477    0.0878 O   0  0  0  0  0  0  0  0  0  0  0  0
    2.0727   -0.2209    0.0485 P   0  0  0  0  0  0  0  0  0  0  0  0
    3.0128    1.5030    0.0853 S   0  0  0  0  0  0  0  0  0  0  0  0
    1.1379   -0.4979    1.2962 O   0  0  0  0  0  0  0  0  0  0  0  0
    1.1786    0.2876    2.5007 C   0  0  0  0  0  0  0  0  0  0  0  0
    2.3237   -0.1534    3.3882 C   0  0  0  0  0  0  0  0  0  0  0  0
    0.7805   -0.5472   -1.6068 S   0  0  0  0  0  0  0  0  0  0  0  0
    0.1850    1.1569   -1.7355 C   0  0  0  0  0  0  0  0  0  0  0  0
   -0.6948    1.7227   -0.2578 S   0  0  0  0  0  0  0  0  0  0  0  0
   -2.2679    0.2966   -0.3358 P   0  0  0  0  0  0  0  0  0  0  0  0
   -2.9190   -0.1645   -2.1168 S   0  0  0  0  0  0  0  0  0  0  0  0
   -3.4094    0.9221    0.5629 O   0  0  0  0  0  0  0  0  0  0  0  0
   -3.3103    1.1358    1.9931 C   0  0  0  0  0  0  0  0  0  0  0  0
   -2.8242    2.5357    2.3097 C   0  0  0  0  0  0  0  0  0  0  0  0
   -1.6701   -0.9007    0.5380 O   0  0  0  0  0  0  0  0  0  0  0  0
   -1.7137   -2.2802    0.1336 C   0  0  0  0  0  0  0  0  0  0  0  0
   -3.0317   -2.9122    0.5321 C   0  0  0  0  0  0  0  0  0  0  0  0
    5.1537   -1.6416   -2.4685 H   0  0  0  0  0  0  0  0  0  0  0  0
    3.9952   -0.3364   -2.1740 H   0  0  0  0  0  0  0  0  0  0  0  0
    5.2531   -0.6799   -0.9827 H   0  0  0  0  0  0  0  0  0  0  0  0
    4.2165   -2.9398   -0.5705 H   0  0  0  0  0  0  0  0  0  0  0  0
    2.9227   -2.5184   -1.7305 H   0  0  0  0  0  0  0  0  0  0  0  0
    1.2768    1.3453    2.2341 H   0  0  0  0  0  0  0  0  0  0  0  0
    0.2086    0.1145    2.9692 H   0  0  0  0  0  0  0  0  0  0  0  0
    3.2690    0.0253    2.8771 H   0  0  0  0  0  0  0  0  0  0  0  0
    2.3062    0.4154    4.3123 H   0  0  0  0  0  0  0  0  0  0  0  0
    2.2411   -1.2137    3.6102 H   0  0  0  0  0  0  0  0  0  0  0  0
   -0.4862    1.1857   -2.5933 H   0  0  0  0  0  0  0  0  0  0  0  0
    1.0305    1.8325   -1.8640 H   0  0  0  0  0  0  0  0  0  0  0  0
   -4.3297    0.9823    2.3513 H   0  0  0  0  0  0  0  0  0  0  0  0
   -2.6492    0.3775    2.4181 H   0  0  0  0  0  0  0  0  0  0  0  0
   -1.8041    2.6792    1.9587 H   0  0  0  0  0  0  0  0  0  0  0  0
   -3.4631    3.2696    1.8263 H   0  0  0  0  0  0  0  0  0  0  0  0
   -2.8545    2.6866    3.3843 H   0  0  0  0  0  0  0  0  0  0  0  0
   -1.5685   -2.3392   -0.9498 H   0  0  0  0  0  0  0  0  0  0  0  0
   -0.8647   -2.7397    0.6432 H   0  0  0  0  0  0  0  0  0  0  0  0
   -3.8489   -2.4068    0.0188 H   0  0  0  0  0  0  0  0  0  0  0  0
   -3.0286   -3.9591    0.2459 H   0  0  0  0  0  0  0  0  0  0  0  0
   -3.1838   -2.8318    1.6050 H   0  0  0  0  0  0  0  0  0  0  0  0
  1  2  1  0  0  0  0
  2  3  1  0  0  0  0
  3  4  2  0  0  0  0
  4  5  2  0  0  0  0
  4  6  2  0  0  0  0
  6  7  1  0  0  0  0
  7  8  1  0  0  0  0
  4  9  1  0  0  0  0
  9 10  1  0  0  0  0
 10 11  1  0  0  0  0
 11 12  1  0  0  0  0
 12 13  2  0  0  0  0
 12 14  2  0  0  0  0
 14 15  1  0  0  0  0
 15 16  1  0  0  0  0
 12 17  1  0  0  0  0
 17 18  1  0  0  0  0
 18 19  1  0  0  0  0
  1 20  1  0  0  0  0
  1 21  1  0  0  0  0
  1 22  1  0  0  0  0
  2 23  1  0  0  0  0
  2 24  1  0  0  0  0
  7 25  1  0  0  0  0
  7 26  1  0  0  0  0
  8 27  1  0  0  0  0
  8 28  1  0  0  0  0
  8 29  1  0  0  0  0
 10 30  1  0  0  0  0
 10 31  1  0  0  0  0
 15 32  1  0  0  0  0
 15 33  1  0  0  0  0
 16 34  1  0  0  0  0
 16 35  1  0  0  0  0
 16 36  1  0  0  0  0
 18 37  1  0  0  0  0
 18 38  1  0  0  0  0
 19 39  1  0  0  0  0
 19 40  1  0  0  0  0
 19 41  1  0  0  0  0
M  END
