 xtb: 6.7.1 (edcfbbe)
          04092505213D

 41 40  0     0  0            999 V2000
    3.4391   -2.3805    1.8894 C   0  0  0  0  0  0  0  0  0  0  0  0
    3.5238   -0.8741    1.7503 C   0  0  0  0  0  0  0  0  0  0  0  0
    3.5984   -0.4881    0.3530 O   0  0  0  0  0  0  0  0  0  0  0  0
    2.3518    0.0120   -0.4834 P   0  0  0  0  0  0  0  0  0  0  0  0
    2.8664    0.5705   -2.2826 S   0  0  0  0  0  0  0  0  0  0  0  0
    1.6332    1.1310    0.4220 O   0  0  0  0  0  0  0  0  0  0  0  0
    1.8179    2.5351    0.1779 C   0  0  0  0  0  0  0  0  0  0  0  0
    3.1858    2.9962    0.6373 C   0  0  0  0  0  0  0  0  0  0  0  0
    0.9230   -1.5321   -0.3244 S   0  0  0  0  0  0  0  0  0  0  0  0
   -0.1455   -0.9899   -1.6808 C   0  0  0  0  0  0  0  0  0  0  0  0
   -0.8229    0.6889   -1.4790 S   0  0  0  0  0  0  0  0  0  0  0  0
   -2.3822    0.2617   -0.1156 P   0  0  0  0  0  0  0  0  0  0  0  0
   -3.3472    1.8197    0.5728 S   0  0  0  0  0  0  0  0  0  0  0  0
   -1.7475   -0.6805    0.9977 O   0  0  0  0  0  0  0  0  0  0  0  0
   -1.0940   -0.1578    2.1691 C   0  0  0  0  0  0  0  0  0  0  0  0
   -0.7898   -1.3296    3.0798 C   0  0  0  0  0  0  0  0  0  0  0  0
   -3.2033   -0.7798   -0.9816 O   0  0  0  0  0  0  0  0  0  0  0  0
   -4.5898   -1.0690   -0.7003 C   0  0  0  0  0  0  0  0  0  0  0  0
   -4.7587   -1.7814    0.6246 C   0  0  0  0  0  0  0  0  0  0  0  0
    3.4621   -2.6401    2.9430 H   0  0  0  0  0  0  0  0  0  0  0  0
    2.5179   -2.7546    1.4481 H   0  0  0  0  0  0  0  0  0  0  0  0
    4.2810   -2.8474    1.3861 H   0  0  0  0  0  0  0  0  0  0  0  0
    4.4480   -0.4894    2.1848 H   0  0  0  0  0  0  0  0  0  0  0  0
    2.6643   -0.3816    2.2112 H   0  0  0  0  0  0  0  0  0  0  0  0
    1.6809    2.7236   -0.8919 H   0  0  0  0  0  0  0  0  0  0  0  0
    1.0128    3.0168    0.7361 H   0  0  0  0  0  0  0  0  0  0  0  0
    3.9561    2.4748    0.0692 H   0  0  0  0  0  0  0  0  0  0  0  0
    3.2821    4.0634    0.4652 H   0  0  0  0  0  0  0  0  0  0  0  0
    3.3218    2.7877    1.6953 H   0  0  0  0  0  0  0  0  0  0  0  0
   -0.9596   -1.7059   -1.7520 H   0  0  0  0  0  0  0  0  0  0  0  0
    0.4398   -0.9554   -2.5991 H   0  0  0  0  0  0  0  0  0  0  0  0
   -0.1778    0.3546    1.8612 H   0  0  0  0  0  0  0  0  0  0  0  0
   -1.7609    0.5707    2.6416 H   0  0  0  0  0  0  0  0  0  0  0  0
   -0.1577   -2.0429    2.5579 H   0  0  0  0  0  0  0  0  0  0  0  0
   -0.2782   -0.9697    3.9662 H   0  0  0  0  0  0  0  0  0  0  0  0
   -1.7113   -1.8235    3.3732 H   0  0  0  0  0  0  0  0  0  0  0  0
   -5.1466   -0.1269   -0.7072 H   0  0  0  0  0  0  0  0  0  0  0  0
   -4.9005   -1.6906   -1.5411 H   0  0  0  0  0  0  0  0  0  0  0  0
   -5.7975   -2.0723    0.7461 H   0  0  0  0  0  0  0  0  0  0  0  0
   -4.1272   -2.6651    0.6606 H   0  0  0  0  0  0  0  0  0  0  0  0
   -4.4811   -1.1135    1.4389 H   0  0  0  0  0  0  0  0  0  0  0  0
  1  2  1  0  0  0  0
  2  3  1  0  0  0  0
  3  4  2  0  0  0  0
  4  5  2  0  0  0  0
  4  6  1  0  0  0  0
  6  7  1  0  0  0  0
  7  8  1  0  0  0  0
  4  9  1  0  0  0  0
  9 10  1  0  0  0  0
 10 11  1  0  0  0  0
 11 12  1  0  0  0  0
 12 13  2  0  0  0  0
 12 14  2  0  0  0  0
 14 15  1  0  0  0  0
 15 16  1  0  0  0  0
 12 17  2  0  0  0  0
 17 18  1  0  0  0  0
 18 19  1  0  0  0  0
  1 20  1  0  0  0  0
  1 21  1  0  0  0  0
  1 22  1  0  0  0  0
  2 23  1  0  0  0  0
  2 24  1  0  0  0  0
  7 25  1  0  0  0  0
  7 26  1  0  0  0  0
  8 27  1  0  0  0  0
  8 28  1  0  0  0  0
  8 29  1  0  0  0  0
 10 30  1  0  0  0  0
 10 31  1  0  0  0  0
 15 32  1  0  0  0  0
 15 33  1  0  0  0  0
 16 34  1  0  0  0  0
 16 35  1  0  0  0  0
 16 36  1  0  0  0  0
 18 37  1  0  0  0  0
 18 38  1  0  0  0  0
 19 39  1  0  0  0  0
 19 40  1  0  0  0  0
 19 41  1  0  0  0  0
M  END
