 xtb: 6.7.1 (edcfbbe)
          04092505203D

 41 40  0     0  0            999 V2000
    4.6581   -1.3702   -1.4335 C   0  0  0  0  0  0  0  0  0  0  0  0
    4.2881    0.0945   -1.3032 C   0  0  0  0  0  0  0  0  0  0  0  0
    3.4585    0.3179   -0.1448 O   0  0  0  0  0  0  0  0  0  0  0  0
    1.8916    0.5725   -0.2608 P   0  0  0  0  0  0  0  0  0  0  0  0
    1.4027    1.9898   -1.5135 S   0  0  0  0  0  0  0  0  0  0  0  0
    1.5146    0.9065    1.2279 O   0  0  0  0  0  0  0  0  0  0  0  0
    2.0207    0.1649    2.3667 C   0  0  0  0  0  0  0  0  0  0  0  0
    3.2124    0.8714    2.9764 C   0  0  0  0  0  0  0  0  0  0  0  0
    1.1399   -1.3663   -0.7542 S   0  0  0  0  0  0  0  0  0  0  0  0
   -0.1168   -0.9264   -1.9845 C   0  0  0  0  0  0  0  0  0  0  0  0
   -1.8301   -1.2726   -1.4951 S   0  0  0  0  0  0  0  0  0  0  0  0
   -1.9073   -0.2997    0.4042 P   0  0  0  0  0  0  0  0  0  0  0  0
   -1.0562   -1.1674    1.9357 S   0  0  0  0  0  0  0  0  0  0  0  0
   -3.4621   -0.0164    0.5586 O   0  0  0  0  0  0  0  0  0  0  0  0
   -4.5041   -0.9859    0.3325 C   0  0  0  0  0  0  0  0  0  0  0  0
   -4.3044   -2.2637    1.1192 C   0  0  0  0  0  0  0  0  0  0  0  0
   -1.3103    1.1462    0.1796 O   0  0  0  0  0  0  0  0  0  0  0  0
   -1.9763    2.1540   -0.6260 C   0  0  0  0  0  0  0  0  0  0  0  0
   -2.7454    3.1088    0.2616 C   0  0  0  0  0  0  0  0  0  0  0  0
    3.7718   -1.9790   -1.5938 H   0  0  0  0  0  0  0  0  0  0  0  0
    5.3294   -1.4889   -2.2778 H   0  0  0  0  0  0  0  0  0  0  0  0
    5.1564   -1.7094   -0.5298 H   0  0  0  0  0  0  0  0  0  0  0  0
    3.7646    0.4593   -2.1926 H   0  0  0  0  0  0  0  0  0  0  0  0
    5.1742    0.7098   -1.1347 H   0  0  0  0  0  0  0  0  0  0  0  0
    1.1787    0.1214    3.0603 H   0  0  0  0  0  0  0  0  0  0  0  0
    2.2707   -0.8502    2.0489 H   0  0  0  0  0  0  0  0  0  0  0  0
    3.5165    0.3361    3.8704 H   0  0  0  0  0  0  0  0  0  0  0  0
    4.0394    0.8969    2.2719 H   0  0  0  0  0  0  0  0  0  0  0  0
    2.9430    1.8902    3.2414 H   0  0  0  0  0  0  0  0  0  0  0  0
    0.0528   -1.5455   -2.8625 H   0  0  0  0  0  0  0  0  0  0  0  0
   -0.0038    0.1350   -2.2253 H   0  0  0  0  0  0  0  0  0  0  0  0
   -5.4103   -0.4632    0.6438 H   0  0  0  0  0  0  0  0  0  0  0  0
   -4.5453   -1.1967   -0.7399 H   0  0  0  0  0  0  0  0  0  0  0  0
   -5.1578   -2.9165    0.9666 H   0  0  0  0  0  0  0  0  0  0  0  0
   -3.4025   -2.7743    0.7836 H   0  0  0  0  0  0  0  0  0  0  0  0
   -4.2005   -2.0459    2.1796 H   0  0  0  0  0  0  0  0  0  0  0  0
   -1.1692    2.6649   -1.1559 H   0  0  0  0  0  0  0  0  0  0  0  0
   -2.6349    1.6591   -1.3442 H   0  0  0  0  0  0  0  0  0  0  0  0
   -3.1889    3.8843   -0.3548 H   0  0  0  0  0  0  0  0  0  0  0  0
   -3.5284    2.5779    0.7973 H   0  0  0  0  0  0  0  0  0  0  0  0
   -2.0729    3.5642    0.9837 H   0  0  0  0  0  0  0  0  0  0  0  0
  1  2  1  0  0  0  0
  2  3  1  0  0  0  0
  3  4  2  0  0  0  0
  4  5  2  0  0  0  0
  4  6  2  0  0  0  0
  6  7  1  0  0  0  0
  7  8  1  0  0  0  0
  4  9  1  0  0  0  0
  9 10  1  0  0  0  0
 10 11  1  0  0  0  0
 11 12  1  0  0  0  0
 12 13  2  0  0  0  0
 12 14  2  0  0  0  0
 14 15  1  0  0  0  0
 15 16  1  0  0  0  0
 12 17  2  0  0  0  0
 17 18  1  0  0  0  0
 18 19  1  0  0  0  0
  1 20  1  0  0  0  0
  1 21  1  0  0  0  0
  1 22  1  0  0  0  0
  2 23  1  0  0  0  0
  2 24  1  0  0  0  0
  7 25  1  0  0  0  0
  7 26  1  0  0  0  0
  8 27  1  0  0  0  0
  8 28  1  0  0  0  0
  8 29  1  0  0  0  0
 10 30  1  0  0  0  0
 10 31  1  0  0  0  0
 15 32  1  0  0  0  0
 15 33  1  0  0  0  0
 16 34  1  0  0  0  0
 16 35  1  0  0  0  0
 16 36  1  0  0  0  0
 18 37  1  0  0  0  0
 18 38  1  0  0  0  0
 19 39  1  0  0  0  0
 19 40  1  0  0  0  0
 19 41  1  0  0  0  0
M  END
