 xtb: 6.7.1 (edcfbbe)
          04032519423D

 20 20  0     0  0            999 V2000
    0.6064    1.6993   -0.0244 C   0  0  0  0  0  0  0  0  0  0  0  0
    1.3978    0.4035   -0.2206 C   0  0  0  0  0  0  0  0  0  0  0  0
    1.6539    0.2851   -1.2798 H   0  0  0  0  0  0  0  0  0  0  0  0
    0.5434   -0.8067    0.2014 C   0  0  0  0  0  0  0  0  0  0  0  0
    0.3470   -0.7765    1.2849 H   0  0  0  0  0  0  0  0  0  0  0  0
   -0.8093   -0.7632   -0.5158 C   0  0  0  0  0  0  0  0  0  0  0  0
   -0.6225   -0.8869   -1.5924 H   0  0  0  0  0  0  0  0  0  0  0  0
   -1.4707    0.6181   -0.2961 C   0  0  0  0  0  0  0  0  0  0  0  0
   -2.3545    0.7032   -0.9448 H   0  0  0  0  0  0  0  0  0  0  0  0
   -0.6257    1.6598   -0.7278 O   0  0  0  0  0  0  0  0  0  0  0  0
   -1.8072    0.7419    1.0461 O   0  0  0  0  0  0  0  0  0  0  0  0
   -1.6091   -1.7991   -0.0160 O   0  0  0  0  0  0  0  0  0  0  0  0
    1.1918   -2.0082   -0.1399 O   0  0  0  0  0  0  0  0  0  0  0  0
    2.6253    0.4152    0.4646 O   0  0  0  0  0  0  0  0  0  0  0  0
    1.1483    2.5534   -0.4296 H   0  0  0  0  0  0  0  0  0  0  0  0
    0.4159    1.8503    1.0462 H   0  0  0  0  0  0  0  0  0  0  0  0
   -2.4000    1.4978    1.1780 H   0  0  0  0  0  0  0  0  0  0  0  0
   -2.4026   -1.9004   -0.5606 H   0  0  0  0  0  0  0  0  0  0  0  0
    2.1184   -1.9399    0.1405 H   0  0  0  0  0  0  0  0  0  0  0  0
    2.4760    0.6196    1.4001 H   0  0  0  0  0  0  0  0  0  0  0  0
  1  2  1  0  0  0  0
  2  3  1  0  0  0  0
  2  4  1  0  0  0  0
  4  5  1  0  0  0  0
  4  6  1  0  0  0  0
  6  7  1  0  0  0  0
  6  8  1  0  0  0  0
  8  9  1  0  0  0  0
  1 10  1  0  0  0  0
  8 10  1  0  0  0  0
  8 11  1  0  0  0  0
  6 12  1  0  0  0  0
  4 13  1  0  0  0  0
  2 14  1  0  0  0  0
  1 15  1  0  0  0  0
  1 16  1  0  0  0  0
 11 17  1  0  0  0  0
 12 18  1  0  0  0  0
 13 19  1  0  0  0  0
 14 20  1  0  0  0  0
M  END
