 xtb: 6.7.1 (edcfbbe)
          04092505203D

 41 40  0     0  0            999 V2000
    4.6316   -1.5907   -0.7084 C   0  0  0  0  0  0  0  0  0  0  0  0
    4.6724   -0.1425   -0.2649 C   0  0  0  0  0  0  0  0  0  0  0  0
    3.5003    0.2345    0.4771 O   0  0  0  0  0  0  0  0  0  0  0  0
    2.0582    0.3391   -0.1871 P   0  0  0  0  0  0  0  0  0  0  0  0
    2.0582    1.0326   -2.0240 S   0  0  0  0  0  0  0  0  0  0  0  0
    1.2763    1.1586    0.9209 O   0  0  0  0  0  0  0  0  0  0  0  0
    1.2318    2.5976    0.9340 C   0  0  0  0  0  0  0  0  0  0  0  0
    2.5939    3.2111    1.1765 C   0  0  0  0  0  0  0  0  0  0  0  0
    1.2618   -1.5792    0.1380 S   0  0  0  0  0  0  0  0  0  0  0  0
    0.0526   -1.6957   -1.2290 C   0  0  0  0  0  0  0  0  0  0  0  0
   -1.6217   -2.0139   -0.6391 S   0  0  0  0  0  0  0  0  0  0  0  0
   -2.0206   -0.0893    0.1744 P   0  0  0  0  0  0  0  0  0  0  0  0
   -1.4128    1.4047   -0.9391 S   0  0  0  0  0  0  0  0  0  0  0  0
   -1.3980   -0.0134    1.6155 O   0  0  0  0  0  0  0  0  0  0  0  0
   -1.3415   -1.0722    2.6070 C   0  0  0  0  0  0  0  0  0  0  0  0
   -2.6873   -1.7016    2.8908 C   0  0  0  0  0  0  0  0  0  0  0  0
   -3.5791   -0.1481    0.4663 O   0  0  0  0  0  0  0  0  0  0  0  0
   -4.5685   -0.1976   -0.5813 C   0  0  0  0  0  0  0  0  0  0  0  0
   -5.0847    1.1909   -0.9048 C   0  0  0  0  0  0  0  0  0  0  0  0
    4.4283   -2.2409    0.1388 H   0  0  0  0  0  0  0  0  0  0  0  0
    3.8498   -1.7282   -1.4543 H   0  0  0  0  0  0  0  0  0  0  0  0
    5.5872   -1.8572   -1.1486 H   0  0  0  0  0  0  0  0  0  0  0  0
    4.7595    0.5204   -1.1318 H   0  0  0  0  0  0  0  0  0  0  0  0
    5.4917    0.0432    0.4308 H   0  0  0  0  0  0  0  0  0  0  0  0
    0.8115    2.9379   -0.0187 H   0  0  0  0  0  0  0  0  0  0  0  0
    0.5293    2.8255    1.7374 H   0  0  0  0  0  0  0  0  0  0  0  0
    3.2473    3.0098    0.3283 H   0  0  0  0  0  0  0  0  0  0  0  0
    2.4859    4.2853    1.2905 H   0  0  0  0  0  0  0  0  0  0  0  0
    3.0399    2.7913    2.0745 H   0  0  0  0  0  0  0  0  0  0  0  0
    0.3235   -2.5467   -1.8481 H   0  0  0  0  0  0  0  0  0  0  0  0
    0.0785   -0.7639   -1.8011 H   0  0  0  0  0  0  0  0  0  0  0  0
   -0.6229   -1.8207    2.2604 H   0  0  0  0  0  0  0  0  0  0  0  0
   -0.9410   -0.5614    3.4839 H   0  0  0  0  0  0  0  0  0  0  0  0
   -3.0393   -2.2554    2.0230 H   0  0  0  0  0  0  0  0  0  0  0  0
   -2.5817   -2.3867    3.7264 H   0  0  0  0  0  0  0  0  0  0  0  0
   -3.4167   -0.9362    3.1422 H   0  0  0  0  0  0  0  0  0  0  0  0
   -4.1355   -0.6715   -1.4663 H   0  0  0  0  0  0  0  0  0  0  0  0
   -5.3616   -0.8314   -0.1800 H   0  0  0  0  0  0  0  0  0  0  0  0
   -5.4812    1.6602   -0.0088 H   0  0  0  0  0  0  0  0  0  0  0  0
   -4.2800    1.8100   -1.2960 H   0  0  0  0  0  0  0  0  0  0  0  0
   -5.8695    1.1170   -1.6506 H   0  0  0  0  0  0  0  0  0  0  0  0
  1  2  1  0  0  0  0
  2  3  1  0  0  0  0
  3  4  2  0  0  0  0
  4  5  2  0  0  0  0
  4  6  2  0  0  0  0
  6  7  1  0  0  0  0
  7  8  1  0  0  0  0
  4  9  1  0  0  0  0
  9 10  1  0  0  0  0
 10 11  1  0  0  0  0
 11 12  1  0  0  0  0
 12 13  2  0  0  0  0
 12 14  2  0  0  0  0
 14 15  1  0  0  0  0
 15 16  1  0  0  0  0
 12 17  2  0  0  0  0
 17 18  1  0  0  0  0
 18 19  1  0  0  0  0
  1 20  1  0  0  0  0
  1 21  1  0  0  0  0
  1 22  1  0  0  0  0
  2 23  1  0  0  0  0
  2 24  1  0  0  0  0
  7 25  1  0  0  0  0
  7 26  1  0  0  0  0
  8 27  1  0  0  0  0
  8 28  1  0  0  0  0
  8 29  1  0  0  0  0
 10 30  1  0  0  0  0
 10 31  1  0  0  0  0
 15 32  1  0  0  0  0
 15 33  1  0  0  0  0
 16 34  1  0  0  0  0
 16 35  1  0  0  0  0
 16 36  1  0  0  0  0
 18 37  1  0  0  0  0
 18 38  1  0  0  0  0
 19 39  1  0  0  0  0
 19 40  1  0  0  0  0
 19 41  1  0  0  0  0
M  END
