 xtb: 6.7.1 (edcfbbe)
          04092505203D

 41 40  0     0  0            999 V2000
    0.4762    3.0973    1.7824 C   0  0  0  0  0  0  0  0  0  0  0  0
    1.4767    2.0164    1.4328 C   0  0  0  0  0  0  0  0  0  0  0  0
    0.8518    0.7290    1.6724 O   0  0  0  0  0  0  0  0  0  0  0  0
    1.4746   -0.5949    1.0824 P   0  0  0  0  0  0  0  0  0  0  0  0
    0.6731   -2.2478    1.7580 S   0  0  0  0  0  0  0  0  0  0  0  0
    3.0017   -0.3957    1.5070 O   0  0  0  0  0  0  0  0  0  0  0  0
    3.9490   -1.4745    1.5688 C   0  0  0  0  0  0  0  0  0  0  0  0
    4.2357   -2.0812    0.2102 C   0  0  0  0  0  0  0  0  0  0  0  0
    1.5540   -0.3457   -1.0358 S   0  0  0  0  0  0  0  0  0  0  0  0
    0.4108   -1.6450   -1.5562 C   0  0  0  0  0  0  0  0  0  0  0  0
   -1.0966   -1.0457   -2.3904 S   0  0  0  0  0  0  0  0  0  0  0  0
   -1.8914    0.2671   -0.9371 P   0  0  0  0  0  0  0  0  0  0  0  0
   -3.7888    0.6792   -1.1826 S   0  0  0  0  0  0  0  0  0  0  0  0
   -0.9278    1.5353   -0.9501 O   0  0  0  0  0  0  0  0  0  0  0  0
   -0.9384    2.4005   -2.1081 C   0  0  0  0  0  0  0  0  0  0  0  0
    0.3937    3.1170   -2.1905 C   0  0  0  0  0  0  0  0  0  0  0  0
   -1.4612   -0.4037    0.4352 O   0  0  0  0  0  0  0  0  0  0  0  0
   -2.4066   -0.5821    1.5109 C   0  0  0  0  0  0  0  0  0  0  0  0
   -2.5075    0.6708    2.3527 C   0  0  0  0  0  0  0  0  0  0  0  0
   -0.4121    2.9947    1.1649 H   0  0  0  0  0  0  0  0  0  0  0  0
    0.1876    3.0212    2.8271 H   0  0  0  0  0  0  0  0  0  0  0  0
    0.9283    4.0687    1.6080 H   0  0  0  0  0  0  0  0  0  0  0  0
    2.3703    2.0758    2.0573 H   0  0  0  0  0  0  0  0  0  0  0  0
    1.7678    2.0670    0.3798 H   0  0  0  0  0  0  0  0  0  0  0  0
    4.8391   -1.0109    1.9967 H   0  0  0  0  0  0  0  0  0  0  0  0
    3.5609   -2.2345    2.2540 H   0  0  0  0  0  0  0  0  0  0  0  0
    4.5033   -1.3062   -0.5034 H   0  0  0  0  0  0  0  0  0  0  0  0
    5.0561   -2.7857    0.3026 H   0  0  0  0  0  0  0  0  0  0  0  0
    3.3578   -2.6124   -0.1541 H   0  0  0  0  0  0  0  0  0  0  0  0
    0.1367   -2.2414   -0.6823 H   0  0  0  0  0  0  0  0  0  0  0  0
    0.9088   -2.2524   -2.3081 H   0  0  0  0  0  0  0  0  0  0  0  0
   -1.1153    1.7918   -3.0024 H   0  0  0  0  0  0  0  0  0  0  0  0
   -1.7715    3.0988   -1.9920 H   0  0  0  0  0  0  0  0  0  0  0  0
    1.1998    2.3941   -2.2877 H   0  0  0  0  0  0  0  0  0  0  0  0
    0.3891    3.7650   -3.0608 H   0  0  0  0  0  0  0  0  0  0  0  0
    0.5535    3.7155   -1.2988 H   0  0  0  0  0  0  0  0  0  0  0  0
   -3.3795   -0.8441    1.0837 H   0  0  0  0  0  0  0  0  0  0  0  0
   -2.0122   -1.4253    2.0811 H   0  0  0  0  0  0  0  0  0  0  0  0
   -2.8910    1.4900    1.7459 H   0  0  0  0  0  0  0  0  0  0  0  0
   -3.1865    0.4913    3.1801 H   0  0  0  0  0  0  0  0  0  0  0  0
   -1.5266    0.9370    2.7365 H   0  0  0  0  0  0  0  0  0  0  0  0
  1  2  1  0  0  0  0
  2  3  1  0  0  0  0
  3  4  2  0  0  0  0
  4  5  2  0  0  0  0
  4  6  1  0  0  0  0
  6  7  1  0  0  0  0
  7  8  1  0  0  0  0
  4  9  1  0  0  0  0
  9 10  1  0  0  0  0
 10 11  1  0  0  0  0
 11 12  1  0  0  0  0
 12 13  2  0  0  0  0
 12 14  1  0  0  0  0
 14 15  1  0  0  0  0
 15 16  1  0  0  0  0
 12 17  2  0  0  0  0
 17 18  1  0  0  0  0
 18 19  1  0  0  0  0
  1 20  1  0  0  0  0
  1 21  1  0  0  0  0
  1 22  1  0  0  0  0
  2 23  1  0  0  0  0
  2 24  1  0  0  0  0
  7 25  1  0  0  0  0
  7 26  1  0  0  0  0
  8 27  1  0  0  0  0
  8 28  1  0  0  0  0
  8 29  1  0  0  0  0
 10 30  1  0  0  0  0
 10 31  1  0  0  0  0
 15 32  1  0  0  0  0
 15 33  1  0  0  0  0
 16 34  1  0  0  0  0
 16 35  1  0  0  0  0
 16 36  1  0  0  0  0
 18 37  1  0  0  0  0
 18 38  1  0  0  0  0
 19 39  1  0  0  0  0
 19 40  1  0  0  0  0
 19 41  1  0  0  0  0
M  END
