 xtb: 6.7.1 (edcfbbe)
          04092505203D

 41 40  0     0  0            999 V2000
    2.5718    2.3107   -1.2784 C   0  0  0  0  0  0  0  0  0  0  0  0
    3.4271    2.0125   -0.0641 C   0  0  0  0  0  0  0  0  0  0  0  0
    3.3655    0.6255    0.3092 O   0  0  0  0  0  0  0  0  0  0  0  0
    2.0217   -0.0365    0.8488 P   0  0  0  0  0  0  0  0  0  0  0  0
    1.0255    1.0977    2.0898 S   0  0  0  0  0  0  0  0  0  0  0  0
    2.5100   -1.3641    1.5463 O   0  0  0  0  0  0  0  0  0  0  0  0
    3.4571   -2.2920    0.9566 C   0  0  0  0  0  0  0  0  0  0  0  0
    4.8639   -1.9970    1.4346 C   0  0  0  0  0  0  0  0  0  0  0  0
    1.1449   -0.7310   -0.9838 S   0  0  0  0  0  0  0  0  0  0  0  0
    0.0144   -1.9893   -0.3361 C   0  0  0  0  0  0  0  0  0  0  0  0
   -1.2368   -1.3302    0.8025 S   0  0  0  0  0  0  0  0  0  0  0  0
   -2.0826    0.0622   -0.5485 P   0  0  0  0  0  0  0  0  0  0  0  0
   -2.2513   -0.5688   -2.4007 S   0  0  0  0  0  0  0  0  0  0  0  0
   -1.1506    1.3127   -0.2722 O   0  0  0  0  0  0  0  0  0  0  0  0
   -1.5419    2.6916   -0.4444 C   0  0  0  0  0  0  0  0  0  0  0  0
   -1.7171    3.0487   -1.9059 C   0  0  0  0  0  0  0  0  0  0  0  0
   -3.4488    0.5169    0.1204 O   0  0  0  0  0  0  0  0  0  0  0  0
   -4.6907   -0.1581   -0.1499 C   0  0  0  0  0  0  0  0  0  0  0  0
   -4.7374   -1.5330    0.4837 C   0  0  0  0  0  0  0  0  0  0  0  0
    2.8437    1.6588   -2.1053 H   0  0  0  0  0  0  0  0  0  0  0  0
    1.5220    2.1451   -1.0363 H   0  0  0  0  0  0  0  0  0  0  0  0
    2.7076    3.3464   -1.5726 H   0  0  0  0  0  0  0  0  0  0  0  0
    3.1035    2.6135    0.7918 H   0  0  0  0  0  0  0  0  0  0  0  0
    4.4854    2.1859   -0.2632 H   0  0  0  0  0  0  0  0  0  0  0  0
    3.1236   -3.2743    1.2975 H   0  0  0  0  0  0  0  0  0  0  0  0
    3.3894   -2.2283   -0.1328 H   0  0  0  0  0  0  0  0  0  0  0  0
    5.1847   -1.0202    1.0835 H   0  0  0  0  0  0  0  0  0  0  0  0
    4.8973   -2.0078    2.5206 H   0  0  0  0  0  0  0  0  0  0  0  0
    5.5360   -2.7564    1.0471 H   0  0  0  0  0  0  0  0  0  0  0  0
    0.5610   -2.7494    0.2167 H   0  0  0  0  0  0  0  0  0  0  0  0
   -0.4786   -2.4133   -1.2114 H   0  0  0  0  0  0  0  0  0  0  0  0
   -2.4609    2.8630    0.1200 H   0  0  0  0  0  0  0  0  0  0  0  0
   -0.7222    3.2453    0.0183 H   0  0  0  0  0  0  0  0  0  0  0  0
   -1.9320    4.1090   -1.9931 H   0  0  0  0  0  0  0  0  0  0  0  0
   -0.8132    2.8161   -2.4642 H   0  0  0  0  0  0  0  0  0  0  0  0
   -2.5417    2.4803   -2.3340 H   0  0  0  0  0  0  0  0  0  0  0  0
   -5.4469    0.5065    0.2699 H   0  0  0  0  0  0  0  0  0  0  0  0
   -4.8148   -0.2302   -1.2353 H   0  0  0  0  0  0  0  0  0  0  0  0
   -5.7305   -1.9525    0.3593 H   0  0  0  0  0  0  0  0  0  0  0  0
   -4.0130   -2.1888    0.0026 H   0  0  0  0  0  0  0  0  0  0  0  0
   -4.5008   -1.4692    1.5430 H   0  0  0  0  0  0  0  0  0  0  0  0
  1  2  1  0  0  0  0
  2  3  1  0  0  0  0
  3  4  2  0  0  0  0
  4  5  2  0  0  0  0
  4  6  2  0  0  0  0
  6  7  1  0  0  0  0
  7  8  1  0  0  0  0
  4  9  1  0  0  0  0
  9 10  1  0  0  0  0
 10 11  1  0  0  0  0
 11 12  1  0  0  0  0
 12 13  2  0  0  0  0
 12 14  2  0  0  0  0
 14 15  1  0  0  0  0
 15 16  1  0  0  0  0
 12 17  2  0  0  0  0
 17 18  1  0  0  0  0
 18 19  1  0  0  0  0
  1 20  1  0  0  0  0
  1 21  1  0  0  0  0
  1 22  1  0  0  0  0
  2 23  1  0  0  0  0
  2 24  1  0  0  0  0
  7 25  1  0  0  0  0
  7 26  1  0  0  0  0
  8 27  1  0  0  0  0
  8 28  1  0  0  0  0
  8 29  1  0  0  0  0
 10 30  1  0  0  0  0
 10 31  1  0  0  0  0
 15 32  1  0  0  0  0
 15 33  1  0  0  0  0
 16 34  1  0  0  0  0
 16 35  1  0  0  0  0
 16 36  1  0  0  0  0
 18 37  1  0  0  0  0
 18 38  1  0  0  0  0
 19 39  1  0  0  0  0
 19 40  1  0  0  0  0
 19 41  1  0  0  0  0
M  END
