 xtb: 6.7.1 (edcfbbe)
          04092505213D

 41 40  0     0  0            999 V2000
    3.5325   -2.7951    0.9592 C   0  0  0  0  0  0  0  0  0  0  0  0
    3.8323   -1.3274    1.1873 C   0  0  0  0  0  0  0  0  0  0  0  0
    3.7719   -0.5837   -0.0561 O   0  0  0  0  0  0  0  0  0  0  0  0
    2.4943    0.2154   -0.5432 P   0  0  0  0  0  0  0  0  0  0  0  0
    2.8752    1.2739   -2.1413 S   0  0  0  0  0  0  0  0  0  0  0  0
    1.9595    1.0367    0.7240 O   0  0  0  0  0  0  0  0  0  0  0  0
    2.2429    2.4343    0.9045 C   0  0  0  0  0  0  0  0  0  0  0  0
    3.6806    2.6519    1.3306 C   0  0  0  0  0  0  0  0  0  0  0  0
    0.9534   -1.2192   -0.7092 S   0  0  0  0  0  0  0  0  0  0  0  0
   -0.1796   -0.1798   -1.6570 C   0  0  0  0  0  0  0  0  0  0  0  0
   -0.9494    1.1584   -0.6889 S   0  0  0  0  0  0  0  0  0  0  0  0
   -2.5769    0.0716    0.1117 P   0  0  0  0  0  0  0  0  0  0  0  0
   -3.8253    1.0530    1.2569 S   0  0  0  0  0  0  0  0  0  0  0  0
   -1.9480   -1.2440    0.7568 O   0  0  0  0  0  0  0  0  0  0  0  0
   -1.6697   -1.3516    2.1622 C   0  0  0  0  0  0  0  0  0  0  0  0
   -0.5948   -0.3831    2.6114 C   0  0  0  0  0  0  0  0  0  0  0  0
   -3.1688   -0.4939   -1.2501 O   0  0  0  0  0  0  0  0  0  0  0  0
   -4.5296   -0.9637   -1.3452 C   0  0  0  0  0  0  0  0  0  0  0  0
   -4.7489   -2.2311   -0.5462 C   0  0  0  0  0  0  0  0  0  0  0  0
    2.5084   -2.9296    0.6172 H   0  0  0  0  0  0  0  0  0  0  0  0
    4.2059   -3.1994    0.2086 H   0  0  0  0  0  0  0  0  0  0  0  0
    3.6709   -3.3331    1.8918 H   0  0  0  0  0  0  0  0  0  0  0  0
    4.8575   -1.1840    1.5331 H   0  0  0  0  0  0  0  0  0  0  0  0
    3.1351   -0.8836    1.9019 H   0  0  0  0  0  0  0  0  0  0  0  0
    2.0316    2.9575   -0.0333 H   0  0  0  0  0  0  0  0  0  0  0  0
    1.5345    2.7556    1.6692 H   0  0  0  0  0  0  0  0  0  0  0  0
    4.3517    2.2949    0.5493 H   0  0  0  0  0  0  0  0  0  0  0  0
    3.8538    3.7120    1.4858 H   0  0  0  0  0  0  0  0  0  0  0  0
    3.8901    2.1143    2.2516 H   0  0  0  0  0  0  0  0  0  0  0  0
   -0.9547   -0.8254   -2.0578 H   0  0  0  0  0  0  0  0  0  0  0  0
    0.3807    0.3121   -2.4531 H   0  0  0  0  0  0  0  0  0  0  0  0
   -2.5979   -1.1652    2.7117 H   0  0  0  0  0  0  0  0  0  0  0  0
   -1.3583   -2.3890    2.2885 H   0  0  0  0  0  0  0  0  0  0  0  0
   -0.9391    0.6414    2.4657 H   0  0  0  0  0  0  0  0  0  0  0  0
   -0.3862   -0.5384    3.6649 H   0  0  0  0  0  0  0  0  0  0  0  0
    0.3162   -0.5300    2.0370 H   0  0  0  0  0  0  0  0  0  0  0  0
   -5.1945   -0.1673   -0.9965 H   0  0  0  0  0  0  0  0  0  0  0  0
   -4.6742   -1.1261   -2.4142 H   0  0  0  0  0  0  0  0  0  0  0  0
   -5.7487   -2.6076   -0.7390 H   0  0  0  0  0  0  0  0  0  0  0  0
   -4.0174   -2.9850   -0.8251 H   0  0  0  0  0  0  0  0  0  0  0  0
   -4.6506   -2.0191    0.5175 H   0  0  0  0  0  0  0  0  0  0  0  0
  1  2  1  0  0  0  0
  2  3  1  0  0  0  0
  3  4  2  0  0  0  0
  4  5  2  0  0  0  0
  4  6  1  0  0  0  0
  6  7  1  0  0  0  0
  7  8  1  0  0  0  0
  4  9  1  0  0  0  0
  9 10  1  0  0  0  0
 10 11  1  0  0  0  0
 11 12  1  0  0  0  0
 12 13  2  0  0  0  0
 12 14  2  0  0  0  0
 14 15  1  0  0  0  0
 15 16  1  0  0  0  0
 12 17  2  0  0  0  0
 17 18  1  0  0  0  0
 18 19  1  0  0  0  0
  1 20  1  0  0  0  0
  1 21  1  0  0  0  0
  1 22  1  0  0  0  0
  2 23  1  0  0  0  0
  2 24  1  0  0  0  0
  7 25  1  0  0  0  0
  7 26  1  0  0  0  0
  8 27  1  0  0  0  0
  8 28  1  0  0  0  0
  8 29  1  0  0  0  0
 10 30  1  0  0  0  0
 10 31  1  0  0  0  0
 15 32  1  0  0  0  0
 15 33  1  0  0  0  0
 16 34  1  0  0  0  0
 16 35  1  0  0  0  0
 16 36  1  0  0  0  0
 18 37  1  0  0  0  0
 18 38  1  0  0  0  0
 19 39  1  0  0  0  0
 19 40  1  0  0  0  0
 19 41  1  0  0  0  0
M  END
