 xtb: 6.7.1 (edcfbbe)
          04032520493D

  8  7  0     0  0            999 V2000
    0.1729    0.3817   -0.5732 C   0  0  0  0  0  0  0  0  0  0  0  0
    0.1936    0.3693   -1.6663 H   0  0  0  0  0  0  0  0  0  0  0  0
    1.2245   -0.5766   -0.0232 C   0  0  0  0  0  0  0  0  0  0  0  0
    2.4536   -0.2267   -0.4248 F   0  0  0  0  0  0  0  0  0  0  0  0
    1.2442   -0.6192    1.3069 F   0  0  0  0  0  0  0  0  0  0  0  0
    1.0222   -1.8239   -0.4579 F   0  0  0  0  0  0  0  0  0  0  0  0
    0.5342    2.0232    0.0119 Cl  0  0  0  0  0  0  0  0  0  0  0  0
   -1.5718   -0.2383    0.0045 Br  0  0  0  0  0  0  0  0  0  0  0  0
  1  2  1  0  0  0  0
  1  3  1  0  0  0  0
  3  4  1  0  0  0  0
  3  5  1  0  0  0  0
  3  6  1  0  0  0  0
  1  7  1  0  0  0  0
  1  8  1  0  0  0  0
M  END
