 xtb: 6.7.1 (edcfbbe)
          04032520373D

 11 10  0     0  0            999 V2000
   -1.7444   -0.6656    0.0010 C   0  0  0  0  0  0  0  0  0  0  0  0
   -0.4674    0.1187   -0.0025 C   0  0  0  0  0  0  0  0  0  0  0  0
   -0.3897    1.3298    0.0005 O   0  0  0  0  0  0  0  0  0  0  0  0
    0.5922   -0.6844   -0.0006 O   0  0  0  0  0  0  0  0  0  0  0  0
    1.8985   -0.1028    0.0006 C   0  0  0  0  0  0  0  0  0  0  0  0
   -2.5897    0.0135   -0.0294 H   0  0  0  0  0  0  0  0  0  0  0  0
   -1.7842   -1.2762    0.8991 H   0  0  0  0  0  0  0  0  0  0  0  0
   -1.7590   -1.3298   -0.8586 H   0  0  0  0  0  0  0  0  0  0  0  0
    1.8535    0.9128    0.3957 H   0  0  0  0  0  0  0  0  0  0  0  0
    2.2786   -0.0838   -1.0206 H   0  0  0  0  0  0  0  0  0  0  0  0
    2.5198   -0.7386    0.6257 H   0  0  0  0  0  0  0  0  0  0  0  0
  1  2  1  0  0  0  0
  2  3  2  0  0  0  0
  2  4  1  0  0  0  0
  4  5  1  0  0  0  0
  1  6  1  0  0  0  0
  1  7  1  0  0  0  0
  1  8  1  0  0  0  0
  5  9  1  0  0  0  0
  5 10  1  0  0  0  0
  5 11  1  0  0  0  0
M  END
