 xtb: 6.7.1 (edcfbbe)
          04092505203D

 41 40  0     0  0            999 V2000
    4.6429   -1.4632   -0.9885 C   0  0  0  0  0  0  0  0  0  0  0  0
    4.6469   -0.0051   -0.5773 C   0  0  0  0  0  0  0  0  0  0  0  0
    3.5123    0.3294    0.2406 O   0  0  0  0  0  0  0  0  0  0  0  0
    2.0246    0.3613   -0.3301 P   0  0  0  0  0  0  0  0  0  0  0  0
    1.9105    1.0692   -2.1603 S   0  0  0  0  0  0  0  0  0  0  0  0
    1.2996    1.1669    0.8259 O   0  0  0  0  0  0  0  0  0  0  0  0
    1.4333    2.6008    0.9227 C   0  0  0  0  0  0  0  0  0  0  0  0
    0.6207    3.0593    2.1144 C   0  0  0  0  0  0  0  0  0  0  0  0
    1.2949   -1.5663    0.0282 S   0  0  0  0  0  0  0  0  0  0  0  0
   -0.0251   -1.6641   -1.2329 C   0  0  0  0  0  0  0  0  0  0  0  0
   -1.6543   -1.9511   -0.5195 S   0  0  0  0  0  0  0  0  0  0  0  0
   -2.0099    0.0016    0.2517 P   0  0  0  0  0  0  0  0  0  0  0  0
   -1.4283    1.4767   -0.8991 S   0  0  0  0  0  0  0  0  0  0  0  0
   -1.3368    0.1375    1.6698 O   0  0  0  0  0  0  0  0  0  0  0  0
   -1.6500   -0.6791    2.8274 C   0  0  0  0  0  0  0  0  0  0  0  0
   -0.6345   -1.7898    3.0061 C   0  0  0  0  0  0  0  0  0  0  0  0
   -3.5478   -0.0625    0.6477 O   0  0  0  0  0  0  0  0  0  0  0  0
   -4.6063   -0.5610   -0.1920 C   0  0  0  0  0  0  0  0  0  0  0  0
   -4.6641    0.1315   -1.5370 C   0  0  0  0  0  0  0  0  0  0  0  0
    3.8174   -1.6521   -1.6733 H   0  0  0  0  0  0  0  0  0  0  0  0
    5.5764   -1.6959   -1.4906 H   0  0  0  0  0  0  0  0  0  0  0  0
    4.5305   -2.1020   -0.1162 H   0  0  0  0  0  0  0  0  0  0  0  0
    4.6379    0.6431   -1.4596 H   0  0  0  0  0  0  0  0  0  0  0  0
    5.5034    0.2353    0.0540 H   0  0  0  0  0  0  0  0  0  0  0  0
    2.4936    2.8432    1.0367 H   0  0  0  0  0  0  0  0  0  0  0  0
    1.0611    3.0413   -0.0090 H   0  0  0  0  0  0  0  0  0  0  0  0
    0.9921    2.5894    3.0203 H   0  0  0  0  0  0  0  0  0  0  0  0
    0.6960    4.1380    2.2037 H   0  0  0  0  0  0  0  0  0  0  0  0
   -0.4208    2.7811    1.9724 H   0  0  0  0  0  0  0  0  0  0  0  0
    0.1809   -2.5210   -1.8686 H   0  0  0  0  0  0  0  0  0  0  0  0
   -0.0281   -0.7343   -1.8089 H   0  0  0  0  0  0  0  0  0  0  0  0
   -1.6160    0.0234    3.6619 H   0  0  0  0  0  0  0  0  0  0  0  0
   -2.6618   -1.0738    2.7212 H   0  0  0  0  0  0  0  0  0  0  0  0
   -0.7024   -2.5160    2.1997 H   0  0  0  0  0  0  0  0  0  0  0  0
    0.3717   -1.3782    3.0160 H   0  0  0  0  0  0  0  0  0  0  0  0
   -0.8249   -2.2905    3.9501 H   0  0  0  0  0  0  0  0  0  0  0  0
   -4.4639   -1.6378   -0.3172 H   0  0  0  0  0  0  0  0  0  0  0  0
   -5.5072   -0.3691    0.3935 H   0  0  0  0  0  0  0  0  0  0  0  0
   -3.7619   -0.0800   -2.1094 H   0  0  0  0  0  0  0  0  0  0  0  0
   -5.5260   -0.2267   -2.0905 H   0  0  0  0  0  0  0  0  0  0  0  0
   -4.7405    1.2085   -1.4071 H   0  0  0  0  0  0  0  0  0  0  0  0
  1  2  1  0  0  0  0
  2  3  1  0  0  0  0
  3  4  2  0  0  0  0
  4  5  2  0  0  0  0
  4  6  2  0  0  0  0
  6  7  1  0  0  0  0
  7  8  1  0  0  0  0
  4  9  1  0  0  0  0
  9 10  1  0  0  0  0
 10 11  1  0  0  0  0
 11 12  1  0  0  0  0
 12 13  2  0  0  0  0
 12 14  2  0  0  0  0
 14 15  1  0  0  0  0
 15 16  1  0  0  0  0
 12 17  2  0  0  0  0
 17 18  1  0  0  0  0
 18 19  1  0  0  0  0
  1 20  1  0  0  0  0
  1 21  1  0  0  0  0
  1 22  1  0  0  0  0
  2 23  1  0  0  0  0
  2 24  1  0  0  0  0
  7 25  1  0  0  0  0
  7 26  1  0  0  0  0
  8 27  1  0  0  0  0
  8 28  1  0  0  0  0
  8 29  1  0  0  0  0
 10 30  1  0  0  0  0
 10 31  1  0  0  0  0
 15 32  1  0  0  0  0
 15 33  1  0  0  0  0
 16 34  1  0  0  0  0
 16 35  1  0  0  0  0
 16 36  1  0  0  0  0
 18 37  1  0  0  0  0
 18 38  1  0  0  0  0
 19 39  1  0  0  0  0
 19 40  1  0  0  0  0
 19 41  1  0  0  0  0
M  END
