 xtb: 6.7.1 (edcfbbe)
          04092507313D

 38 37  0     0  0            999 V2000
    5.4416   -1.8724   -0.7618 C   0  0  0  0  0  0  0  0  0  0  0  0
    4.3590   -2.3268    0.2041 C   0  0  0  0  0  0  0  0  0  0  0  0
    3.0578   -2.2627   -0.4150 O   0  0  0  0  0  0  0  0  0  0  0  0
    2.3999   -1.1268   -0.3815 C   0  0  0  0  0  0  0  0  0  0  0  0
    2.8040   -0.1064    0.1421 O   0  0  0  0  0  0  0  0  0  0  0  0
    1.0464   -1.2404   -1.0416 C   0  0  0  0  0  0  0  0  0  0  0  0
    0.4846    0.1465   -1.3292 C   0  0  0  0  0  0  0  0  0  0  0  0
    0.8923    0.5727   -2.2470 H   0  0  0  0  0  0  0  0  0  0  0  0
    0.7221    1.1107   -0.1821 C   0  0  0  0  0  0  0  0  0  0  0  0
    0.2361    0.9333    0.9194 O   0  0  0  0  0  0  0  0  0  0  0  0
    1.3698    2.1810   -0.5619 O   0  0  0  0  0  0  0  0  0  0  0  0
    1.6335    3.2027    0.4229 C   0  0  0  0  0  0  0  0  0  0  0  0
    0.4057    4.0655    0.6659 C   0  0  0  0  0  0  0  0  0  0  0  0
   -1.3214    0.1144   -1.5509 S   0  0  0  0  0  0  0  0  0  0  0  0
   -2.0653   -0.2234    0.4268 P   0  0  0  0  0  0  0  0  0  0  0  0
   -1.3147   -1.6284    1.5719 S   0  0  0  0  0  0  0  0  0  0  0  0
   -2.3461    1.1749    1.1181 O   0  0  0  0  0  0  0  0  0  0  0  0
   -3.1994    2.1653    0.5111 C   0  0  0  0  0  0  0  0  0  0  0  0
   -3.5730   -0.5844    0.0002 O   0  0  0  0  0  0  0  0  0  0  0  0
   -3.9079   -1.8476   -0.5804 C   0  0  0  0  0  0  0  0  0  0  0  0
    6.4127   -1.9980   -0.2946 H   0  0  0  0  0  0  0  0  0  0  0  0
    5.4019   -2.4639   -1.6721 H   0  0  0  0  0  0  0  0  0  0  0  0
    5.3032   -0.8230   -1.0120 H   0  0  0  0  0  0  0  0  0  0  0  0
    4.3494   -1.7021    1.1019 H   0  0  0  0  0  0  0  0  0  0  0  0
    4.4777   -3.3763    0.4731 H   0  0  0  0  0  0  0  0  0  0  0  0
    0.4075   -1.7693   -0.3231 H   0  0  0  0  0  0  0  0  0  0  0  0
    1.1086   -1.8433   -1.9460 H   0  0  0  0  0  0  0  0  0  0  0  0
    1.9577    2.7113    1.3443 H   0  0  0  0  0  0  0  0  0  0  0  0
    2.4522    3.7777   -0.0090 H   0  0  0  0  0  0  0  0  0  0  0  0
    0.0528    4.4877   -0.2711 H   0  0  0  0  0  0  0  0  0  0  0  0
   -0.3857    3.4670    1.1122 H   0  0  0  0  0  0  0  0  0  0  0  0
    0.6644    4.8687    1.3477 H   0  0  0  0  0  0  0  0  0  0  0  0
   -3.1061    3.0456    1.1425 H   0  0  0  0  0  0  0  0  0  0  0  0
   -4.2268    1.8070    0.4957 H   0  0  0  0  0  0  0  0  0  0  0  0
   -2.8653    2.3792   -0.5048 H   0  0  0  0  0  0  0  0  0  0  0  0
   -4.9884   -1.9318   -0.4974 H   0  0  0  0  0  0  0  0  0  0  0  0
   -3.4195   -2.6533   -0.0295 H   0  0  0  0  0  0  0  0  0  0  0  0
   -3.5990   -1.8671   -1.6250 H   0  0  0  0  0  0  0  0  0  0  0  0
  1  2  1  0  0  0  0
  2  3  1  0  0  0  0
  3  4  4  0  0  0  0
  4  5  2  0  0  0  0
  4  6  1  0  0  0  0
  6  7  1  0  0  0  0
  7  8  1  0  0  0  0
  7  9  1  0  0  0  0
  9 10  2  0  0  0  0
  9 11  4  0  0  0  0
 11 12  1  0  0  0  0
 12 13  1  0  0  0  0
  7 14  1  0  0  0  0
 14 15  1  0  0  0  0
 15 16  2  0  0  0  0
 15 17  2  0  0  0  0
 17 18  1  0  0  0  0
 15 19  1  0  0  0  0
 19 20  1  0  0  0  0
  1 21  1  0  0  0  0
  1 22  1  0  0  0  0
  1 23  1  0  0  0  0
  2 24  1  0  0  0  0
  2 25  1  0  0  0  0
  6 26  1  0  0  0  0
  6 27  1  0  0  0  0
 12 28  1  0  0  0  0
 12 29  1  0  0  0  0
 13 30  1  0  0  0  0
 13 31  1  0  0  0  0
 13 32  1  0  0  0  0
 18 33  1  0  0  0  0
 18 34  1  0  0  0  0
 18 35  1  0  0  0  0
 20 36  1  0  0  0  0
 20 37  1  0  0  0  0
 20 38  1  0  0  0  0
M  END
