 xtb: 6.7.1 (edcfbbe)
          04092505203D

 41 40  0     0  0            999 V2000
    2.8941    2.1528   -1.6643 C   0  0  0  0  0  0  0  0  0  0  0  0
    2.0594    0.8901   -1.6797 C   0  0  0  0  0  0  0  0  0  0  0  0
    1.2836    0.7754   -0.4536 O   0  0  0  0  0  0  0  0  0  0  0  0
    1.7661   -0.1287    0.7543 P   0  0  0  0  0  0  0  0  0  0  0  0
    0.8999    0.2894    2.4581 S   0  0  0  0  0  0  0  0  0  0  0  0
    3.3356    0.1250    0.7684 O   0  0  0  0  0  0  0  0  0  0  0  0
    4.1540   -0.2205    1.8990 C   0  0  0  0  0  0  0  0  0  0  0  0
    4.2478   -1.7195    2.0946 C   0  0  0  0  0  0  0  0  0  0  0  0
    1.6423   -2.1166   -0.0127 S   0  0  0  0  0  0  0  0  0  0  0  0
   -0.0175   -2.1002   -0.7457 C   0  0  0  0  0  0  0  0  0  0  0  0
   -1.3390   -1.5767    0.3940 S   0  0  0  0  0  0  0  0  0  0  0  0
   -1.8899    0.2536   -0.4947 P   0  0  0  0  0  0  0  0  0  0  0  0
   -1.3824    0.5468   -2.3670 S   0  0  0  0  0  0  0  0  0  0  0  0
   -1.3634    1.2950    0.5704 O   0  0  0  0  0  0  0  0  0  0  0  0
   -1.1701    2.6898    0.2703 C   0  0  0  0  0  0  0  0  0  0  0  0
   -2.4814    3.4115    0.0440 C   0  0  0  0  0  0  0  0  0  0  0  0
   -3.4582    0.3293   -0.2330 O   0  0  0  0  0  0  0  0  0  0  0  0
   -4.4305   -0.1919   -1.1555 C   0  0  0  0  0  0  0  0  0  0  0  0
   -4.3877   -1.7034   -1.2528 C   0  0  0  0  0  0  0  0  0  0  0  0
    3.6219    2.1149   -0.8583 H   0  0  0  0  0  0  0  0  0  0  0  0
    3.4123    2.2407   -2.6141 H   0  0  0  0  0  0  0  0  0  0  0  0
    2.2575    3.0223   -1.5230 H   0  0  0  0  0  0  0  0  0  0  0  0
    2.6861    0.0017   -1.7866 H   0  0  0  0  0  0  0  0  0  0  0  0
    1.3133    0.9173   -2.4778 H   0  0  0  0  0  0  0  0  0  0  0  0
    5.1247    0.2172    1.6622 H   0  0  0  0  0  0  0  0  0  0  0  0
    3.7337    0.2589    2.7887 H   0  0  0  0  0  0  0  0  0  0  0  0
    3.2741   -2.1175    2.3785 H   0  0  0  0  0  0  0  0  0  0  0  0
    4.5684   -2.2036    1.1756 H   0  0  0  0  0  0  0  0  0  0  0  0
    4.9593   -1.9352    2.8850 H   0  0  0  0  0  0  0  0  0  0  0  0
   -0.2130   -3.1338   -1.0212 H   0  0  0  0  0  0  0  0  0  0  0  0
   -0.0382   -1.4498   -1.6243 H   0  0  0  0  0  0  0  0  0  0  0  0
   -0.6388    3.0682    1.1456 H   0  0  0  0  0  0  0  0  0  0  0  0
   -0.5248    2.7634   -0.6112 H   0  0  0  0  0  0  0  0  0  0  0  0
   -2.2903    4.4745   -0.0656 H   0  0  0  0  0  0  0  0  0  0  0  0
   -2.9589    3.0410   -0.8624 H   0  0  0  0  0  0  0  0  0  0  0  0
   -3.1483    3.2469    0.8864 H   0  0  0  0  0  0  0  0  0  0  0  0
   -5.3824    0.1585   -0.7542 H   0  0  0  0  0  0  0  0  0  0  0  0
   -4.2511    0.2603   -2.1365 H   0  0  0  0  0  0  0  0  0  0  0  0
   -4.4455   -2.1476   -0.2622 H   0  0  0  0  0  0  0  0  0  0  0  0
   -5.2253   -2.0459   -1.8520 H   0  0  0  0  0  0  0  0  0  0  0  0
   -3.4604   -2.0218   -1.7269 H   0  0  0  0  0  0  0  0  0  0  0  0
  1  2  1  0  0  0  0
  2  3  1  0  0  0  0
  3  4  2  0  0  0  0
  4  5  2  0  0  0  0
  4  6  2  0  0  0  0
  6  7  1  0  0  0  0
  7  8  1  0  0  0  0
  4  9  1  0  0  0  0
  9 10  1  0  0  0  0
 10 11  1  0  0  0  0
 11 12  1  0  0  0  0
 12 13  2  0  0  0  0
 12 14  2  0  0  0  0
 14 15  1  0  0  0  0
 15 16  1  0  0  0  0
 12 17  2  0  0  0  0
 17 18  1  0  0  0  0
 18 19  1  0  0  0  0
  1 20  1  0  0  0  0
  1 21  1  0  0  0  0
  1 22  1  0  0  0  0
  2 23  1  0  0  0  0
  2 24  1  0  0  0  0
  7 25  1  0  0  0  0
  7 26  1  0  0  0  0
  8 27  1  0  0  0  0
  8 28  1  0  0  0  0
  8 29  1  0  0  0  0
 10 30  1  0  0  0  0
 10 31  1  0  0  0  0
 15 32  1  0  0  0  0
 15 33  1  0  0  0  0
 16 34  1  0  0  0  0
 16 35  1  0  0  0  0
 16 36  1  0  0  0  0
 18 37  1  0  0  0  0
 18 38  1  0  0  0  0
 19 39  1  0  0  0  0
 19 40  1  0  0  0  0
 19 41  1  0  0  0  0
M  END
