 xtb: 6.7.1 (edcfbbe)
          04092505203D

 41 40  0     0  0            999 V2000
    3.8646    0.1771    1.9371 C   0  0  0  0  0  0  0  0  0  0  0  0
    4.2088   -0.4708    0.6121 C   0  0  0  0  0  0  0  0  0  0  0  0
    3.5598    0.1733   -0.5126 O   0  0  0  0  0  0  0  0  0  0  0  0
    1.9969    0.1989   -0.7913 P   0  0  0  0  0  0  0  0  0  0  0  0
    1.6954    0.6817   -2.6632 S   0  0  0  0  0  0  0  0  0  0  0  0
    1.3438    1.1754    0.2928 O   0  0  0  0  0  0  0  0  0  0  0  0
    1.4919    2.6012    0.1620 C   0  0  0  0  0  0  0  0  0  0  0  0
    0.9776    3.2316    1.4388 C   0  0  0  0  0  0  0  0  0  0  0  0
    1.3031   -1.6600   -0.1188 S   0  0  0  0  0  0  0  0  0  0  0  0
   -0.1197   -1.8832   -1.2363 C   0  0  0  0  0  0  0  0  0  0  0  0
   -1.6871   -2.0387   -0.3579 S   0  0  0  0  0  0  0  0  0  0  0  0
   -1.9145   -0.0046    0.2360 P   0  0  0  0  0  0  0  0  0  0  0  0
   -1.5447    1.3448   -1.1323 S   0  0  0  0  0  0  0  0  0  0  0  0
   -1.0402    0.1546    1.5363 O   0  0  0  0  0  0  0  0  0  0  0  0
   -1.2695   -0.6594    2.7199 C   0  0  0  0  0  0  0  0  0  0  0  0
    0.0624   -0.9088    3.3953 C   0  0  0  0  0  0  0  0  0  0  0  0
   -3.3861    0.0291    0.8408 O   0  0  0  0  0  0  0  0  0  0  0  0
   -4.5584    0.2742    0.0448 C   0  0  0  0  0  0  0  0  0  0  0  0
   -4.8324   -0.8431   -0.9409 C   0  0  0  0  0  0  0  0  0  0  0  0
    4.4237   -0.3167    2.7258 H   0  0  0  0  0  0  0  0  0  0  0  0
    4.1252    1.2327    1.9217 H   0  0  0  0  0  0  0  0  0  0  0  0
    2.8010    0.0758    2.1402 H   0  0  0  0  0  0  0  0  0  0  0  0
    3.9278   -1.5270    0.6092 H   0  0  0  0  0  0  0  0  0  0  0  0
    5.2695   -0.3697    0.3764 H   0  0  0  0  0  0  0  0  0  0  0  0
    2.5476    2.8326   -0.0145 H   0  0  0  0  0  0  0  0  0  0  0  0
    0.9113    2.9263   -0.7081 H   0  0  0  0  0  0  0  0  0  0  0  0
   -0.0576    2.9370    1.5927 H   0  0  0  0  0  0  0  0  0  0  0  0
    1.5700    2.9007    2.2869 H   0  0  0  0  0  0  0  0  0  0  0  0
    1.0354    4.3116    1.3522 H   0  0  0  0  0  0  0  0  0  0  0  0
    0.0214   -2.8190   -1.7712 H   0  0  0  0  0  0  0  0  0  0  0  0
   -0.1548   -1.0365   -1.9282 H   0  0  0  0  0  0  0  0  0  0  0  0
   -1.9507   -0.0989    3.3623 H   0  0  0  0  0  0  0  0  0  0  0  0
   -1.7457   -1.5965    2.4177 H   0  0  0  0  0  0  0  0  0  0  0  0
   -0.1061   -1.4587    4.3156 H   0  0  0  0  0  0  0  0  0  0  0  0
    0.7113   -1.4907    2.7453 H   0  0  0  0  0  0  0  0  0  0  0  0
    0.5442    0.0374    3.6255 H   0  0  0  0  0  0  0  0  0  0  0  0
   -5.3563    0.3640    0.7834 H   0  0  0  0  0  0  0  0  0  0  0  0
   -4.4263    1.2257   -0.4794 H   0  0  0  0  0  0  0  0  0  0  0  0
   -4.8369   -1.8043   -0.4333 H   0  0  0  0  0  0  0  0  0  0  0  0
   -5.7972   -0.6771   -1.4094 H   0  0  0  0  0  0  0  0  0  0  0  0
   -4.0654   -0.8565   -1.7136 H   0  0  0  0  0  0  0  0  0  0  0  0
  1  2  1  0  0  0  0
  2  3  1  0  0  0  0
  3  4  2  0  0  0  0
  4  5  2  0  0  0  0
  4  6  1  0  0  0  0
  6  7  1  0  0  0  0
  7  8  1  0  0  0  0
  4  9  1  0  0  0  0
  9 10  1  0  0  0  0
 10 11  1  0  0  0  0
 11 12  1  0  0  0  0
 12 13  2  0  0  0  0
 12 14  2  0  0  0  0
 14 15  1  0  0  0  0
 15 16  1  0  0  0  0
 12 17  2  0  0  0  0
 17 18  1  0  0  0  0
 18 19  1  0  0  0  0
  1 20  1  0  0  0  0
  1 21  1  0  0  0  0
  1 22  1  0  0  0  0
  2 23  1  0  0  0  0
  2 24  1  0  0  0  0
  7 25  1  0  0  0  0
  7 26  1  0  0  0  0
  8 27  1  0  0  0  0
  8 28  1  0  0  0  0
  8 29  1  0  0  0  0
 10 30  1  0  0  0  0
 10 31  1  0  0  0  0
 15 32  1  0  0  0  0
 15 33  1  0  0  0  0
 16 34  1  0  0  0  0
 16 35  1  0  0  0  0
 16 36  1  0  0  0  0
 18 37  1  0  0  0  0
 18 38  1  0  0  0  0
 19 39  1  0  0  0  0
 19 40  1  0  0  0  0
 19 41  1  0  0  0  0
M  END
