 xtb: 6.7.1 (edcfbbe)
          04092505213D

 41 40  0     0  0            999 V2000
    1.6632   -2.7662    1.3201 C   0  0  0  0  0  0  0  0  0  0  0  0
    1.7891   -1.3732    1.9017 C   0  0  0  0  0  0  0  0  0  0  0  0
    2.8118   -0.5901    1.2611 O   0  0  0  0  0  0  0  0  0  0  0  0
    2.7671   -0.0604   -0.2398 P   0  0  0  0  0  0  0  0  0  0  0  0
    2.9800   -1.3594   -1.6860 S   0  0  0  0  0  0  0  0  0  0  0  0
    3.9480    0.9749   -0.2575 O   0  0  0  0  0  0  0  0  0  0  0  0
    4.0617    2.0868    0.6674 C   0  0  0  0  0  0  0  0  0  0  0  0
    4.9746    1.7338    1.8235 C   0  0  0  0  0  0  0  0  0  0  0  0
    0.9893    1.1482   -0.3300 S   0  0  0  0  0  0  0  0  0  0  0  0
   -0.0038    0.0818   -1.4018 C   0  0  0  0  0  0  0  0  0  0  0  0
   -1.0957   -1.0085   -0.4695 S   0  0  0  0  0  0  0  0  0  0  0  0
   -2.6682    0.4144   -0.2026 P   0  0  0  0  0  0  0  0  0  0  0  0
   -3.0204    1.5561   -1.7573 S   0  0  0  0  0  0  0  0  0  0  0  0
   -2.3159    1.3489    1.0118 O   0  0  0  0  0  0  0  0  0  0  0  0
   -1.7070    1.0164    2.2846 C   0  0  0  0  0  0  0  0  0  0  0  0
   -2.2280   -0.2628    2.9025 C   0  0  0  0  0  0  0  0  0  0  0  0
   -3.8718   -0.4529    0.3561 O   0  0  0  0  0  0  0  0  0  0  0  0
   -4.3395   -1.6931   -0.2050 C   0  0  0  0  0  0  0  0  0  0  0  0
   -4.6919   -1.5788   -1.6733 C   0  0  0  0  0  0  0  0  0  0  0  0
    1.2792   -2.7231    0.3024 H   0  0  0  0  0  0  0  0  0  0  0  0
    2.6329   -3.2569    1.3036 H   0  0  0  0  0  0  0  0  0  0  0  0
    0.9764   -3.3459    1.9279 H   0  0  0  0  0  0  0  0  0  0  0  0
    2.1088   -1.4068    2.9447 H   0  0  0  0  0  0  0  0  0  0  0  0
    0.8378   -0.8390    1.8242 H   0  0  0  0  0  0  0  0  0  0  0  0
    4.4767    2.8976    0.0660 H   0  0  0  0  0  0  0  0  0  0  0  0
    3.0626    2.3635    1.0144 H   0  0  0  0  0  0  0  0  0  0  0  0
    5.0884    2.6035    2.4632 H   0  0  0  0  0  0  0  0  0  0  0  0
    4.5565    0.9137    2.4001 H   0  0  0  0  0  0  0  0  0  0  0  0
    5.9492    1.4350    1.4475 H   0  0  0  0  0  0  0  0  0  0  0  0
    0.6668   -0.5446   -1.9949 H   0  0  0  0  0  0  0  0  0  0  0  0
   -0.6141    0.7279   -2.0361 H   0  0  0  0  0  0  0  0  0  0  0  0
   -0.6265    0.9720    2.1212 H   0  0  0  0  0  0  0  0  0  0  0  0
   -1.9409    1.8839    2.9041 H   0  0  0  0  0  0  0  0  0  0  0  0
   -1.9761   -1.1210    2.2823 H   0  0  0  0  0  0  0  0  0  0  0  0
   -1.7729   -0.3885    3.8804 H   0  0  0  0  0  0  0  0  0  0  0  0
   -3.3078   -0.2131    3.0146 H   0  0  0  0  0  0  0  0  0  0  0  0
   -3.5656   -2.4503   -0.0522 H   0  0  0  0  0  0  0  0  0  0  0  0
   -5.2180   -1.9317    0.3970 H   0  0  0  0  0  0  0  0  0  0  0  0
   -5.1170   -2.5163   -2.0171 H   0  0  0  0  0  0  0  0  0  0  0  0
   -5.4106   -0.7779   -1.8305 H   0  0  0  0  0  0  0  0  0  0  0  0
   -3.8010   -1.3578   -2.2599 H   0  0  0  0  0  0  0  0  0  0  0  0
  1  2  1  0  0  0  0
  2  3  1  0  0  0  0
  3  4  2  0  0  0  0
  4  5  2  0  0  0  0
  4  6  2  0  0  0  0
  6  7  1  0  0  0  0
  7  8  1  0  0  0  0
  4  9  1  0  0  0  0
  9 10  1  0  0  0  0
 10 11  1  0  0  0  0
 11 12  1  0  0  0  0
 12 13  2  0  0  0  0
 12 14  2  0  0  0  0
 14 15  1  0  0  0  0
 15 16  1  0  0  0  0
 12 17  2  0  0  0  0
 17 18  1  0  0  0  0
 18 19  1  0  0  0  0
  1 20  1  0  0  0  0
  1 21  1  0  0  0  0
  1 22  1  0  0  0  0
  2 23  1  0  0  0  0
  2 24  1  0  0  0  0
  7 25  1  0  0  0  0
  7 26  1  0  0  0  0
  8 27  1  0  0  0  0
  8 28  1  0  0  0  0
  8 29  1  0  0  0  0
 10 30  1  0  0  0  0
 10 31  1  0  0  0  0
 15 32  1  0  0  0  0
 15 33  1  0  0  0  0
 16 34  1  0  0  0  0
 16 35  1  0  0  0  0
 16 36  1  0  0  0  0
 18 37  1  0  0  0  0
 18 38  1  0  0  0  0
 19 39  1  0  0  0  0
 19 40  1  0  0  0  0
 19 41  1  0  0  0  0
M  END
