 xtb: 6.7.1 (edcfbbe)
          04092505203D

 41 40  0     0  0            999 V2000
    3.2714    2.0888   -1.8817 C   0  0  0  0  0  0  0  0  0  0  0  0
    2.0448    1.2122   -1.7455 C   0  0  0  0  0  0  0  0  0  0  0  0
    1.5353    1.2615   -0.3893 O   0  0  0  0  0  0  0  0  0  0  0  0
    1.8115    0.1315    0.6715 P   0  0  0  0  0  0  0  0  0  0  0  0
    1.2466    0.6395    2.4722 S   0  0  0  0  0  0  0  0  0  0  0  0
    3.3726   -0.1023    0.4566 O   0  0  0  0  0  0  0  0  0  0  0  0
    4.1295   -1.1353    1.1148 C   0  0  0  0  0  0  0  0  0  0  0  0
    4.6219   -0.6886    2.4777 C   0  0  0  0  0  0  0  0  0  0  0  0
    1.0264   -1.7140   -0.0700 S   0  0  0  0  0  0  0  0  0  0  0  0
   -0.3148   -2.0005    1.1140 C   0  0  0  0  0  0  0  0  0  0  0  0
   -1.9697   -1.9478    0.3741 S   0  0  0  0  0  0  0  0  0  0  0  0
   -1.9108   -0.0466   -0.5745 P   0  0  0  0  0  0  0  0  0  0  0  0
   -1.1707    0.0252   -2.3919 S   0  0  0  0  0  0  0  0  0  0  0  0
   -1.1773    0.8116    0.5416 O   0  0  0  0  0  0  0  0  0  0  0  0
   -1.5775    2.1501    0.9156 C   0  0  0  0  0  0  0  0  0  0  0  0
   -1.3198    3.1433   -0.1967 C   0  0  0  0  0  0  0  0  0  0  0  0
   -3.4068    0.4754   -0.4821 O   0  0  0  0  0  0  0  0  0  0  0  0
   -4.3738    0.1741   -1.5033 C   0  0  0  0  0  0  0  0  0  0  0  0
   -4.7855   -1.2827   -1.4700 C   0  0  0  0  0  0  0  0  0  0  0  0
    4.0730    1.7150   -1.2503 H   0  0  0  0  0  0  0  0  0  0  0  0
    3.5946    2.0818   -2.9178 H   0  0  0  0  0  0  0  0  0  0  0  0
    3.0363    3.1074   -1.5855 H   0  0  0  0  0  0  0  0  0  0  0  0
    2.2613    0.1735   -2.0089 H   0  0  0  0  0  0  0  0  0  0  0  0
    1.2217    1.5689   -2.3687 H   0  0  0  0  0  0  0  0  0  0  0  0
    3.5130   -2.0354    1.1931 H   0  0  0  0  0  0  0  0  0  0  0  0
    4.9641   -1.3262    0.4370 H   0  0  0  0  0  0  0  0  0  0  0  0
    3.7830   -0.4989    3.1433 H   0  0  0  0  0  0  0  0  0  0  0  0
    5.2438   -1.4690    2.9042 H   0  0  0  0  0  0  0  0  0  0  0  0
    5.2039    0.2242    2.3848 H   0  0  0  0  0  0  0  0  0  0  0  0
   -0.2354   -1.2581    1.9135 H   0  0  0  0  0  0  0  0  0  0  0  0
   -0.2076   -3.0111    1.5014 H   0  0  0  0  0  0  0  0  0  0  0  0
   -2.6324    2.1269    1.1934 H   0  0  0  0  0  0  0  0  0  0  0  0
   -0.9639    2.3594    1.7945 H   0  0  0  0  0  0  0  0  0  0  0  0
   -1.8953    2.8717   -1.0811 H   0  0  0  0  0  0  0  0  0  0  0  0
   -1.6130    4.1353    0.1320 H   0  0  0  0  0  0  0  0  0  0  0  0
   -0.2634    3.1454   -0.4549 H   0  0  0  0  0  0  0  0  0  0  0  0
   -5.2097    0.8377   -1.2786 H   0  0  0  0  0  0  0  0  0  0  0  0
   -3.9417    0.4316   -2.4762 H   0  0  0  0  0  0  0  0  0  0  0  0
   -5.5733   -1.4521   -2.1968 H   0  0  0  0  0  0  0  0  0  0  0  0
   -3.9322   -1.9140   -1.7184 H   0  0  0  0  0  0  0  0  0  0  0  0
   -5.1405   -1.5541   -0.4793 H   0  0  0  0  0  0  0  0  0  0  0  0
  1  2  1  0  0  0  0
  2  3  1  0  0  0  0
  3  4  2  0  0  0  0
  4  5  2  0  0  0  0
  4  6  2  0  0  0  0
  6  7  1  0  0  0  0
  7  8  1  0  0  0  0
  4  9  1  0  0  0  0
  9 10  1  0  0  0  0
 10 11  1  0  0  0  0
 11 12  1  0  0  0  0
 12 13  2  0  0  0  0
 12 14  1  0  0  0  0
 14 15  1  0  0  0  0
 15 16  1  0  0  0  0
 12 17  2  0  0  0  0
 17 18  1  0  0  0  0
 18 19  1  0  0  0  0
  1 20  1  0  0  0  0
  1 21  1  0  0  0  0
  1 22  1  0  0  0  0
  2 23  1  0  0  0  0
  2 24  1  0  0  0  0
  7 25  1  0  0  0  0
  7 26  1  0  0  0  0
  8 27  1  0  0  0  0
  8 28  1  0  0  0  0
  8 29  1  0  0  0  0
 10 30  1  0  0  0  0
 10 31  1  0  0  0  0
 15 32  1  0  0  0  0
 15 33  1  0  0  0  0
 16 34  1  0  0  0  0
 16 35  1  0  0  0  0
 16 36  1  0  0  0  0
 18 37  1  0  0  0  0
 18 38  1  0  0  0  0
 19 39  1  0  0  0  0
 19 40  1  0  0  0  0
 19 41  1  0  0  0  0
M  END
