 xtb: 6.7.1 (edcfbbe)
          04092505213D

 41 40  0     0  0            999 V2000
    3.5986   -2.2524    1.4080 C   0  0  0  0  0  0  0  0  0  0  0  0
    2.1977   -2.1154    0.8483 C   0  0  0  0  0  0  0  0  0  0  0  0
    1.8079   -0.7324    0.7661 O   0  0  0  0  0  0  0  0  0  0  0  0
    2.3625    0.2404   -0.3786 P   0  0  0  0  0  0  0  0  0  0  0  0
    2.9818   -0.6665   -1.9943 S   0  0  0  0  0  0  0  0  0  0  0  0
    3.5025    1.1422    0.2448 O   0  0  0  0  0  0  0  0  0  0  0  0
    3.3169    2.1384    1.2785 C   0  0  0  0  0  0  0  0  0  0  0  0
    3.2082    1.5127    2.6537 C   0  0  0  0  0  0  0  0  0  0  0  0
    0.7130    1.5598   -0.5795 S   0  0  0  0  0  0  0  0  0  0  0  0
   -0.1917    0.5139   -1.7476 C   0  0  0  0  0  0  0  0  0  0  0  0
   -0.8781   -0.9687   -0.9819 S   0  0  0  0  0  0  0  0  0  0  0  0
   -2.5419    0.0288   -0.0800 P   0  0  0  0  0  0  0  0  0  0  0  0
   -3.4792    1.2967   -1.2380 S   0  0  0  0  0  0  0  0  0  0  0  0
   -2.0092    0.7913    1.1874 O   0  0  0  0  0  0  0  0  0  0  0  0
   -1.2599    0.1760    2.2663 C   0  0  0  0  0  0  0  0  0  0  0  0
   -0.7428    1.2953    3.1457 C   0  0  0  0  0  0  0  0  0  0  0  0
   -3.3546   -1.1672    0.5777 O   0  0  0  0  0  0  0  0  0  0  0  0
   -3.7481   -2.3772   -0.0972 C   0  0  0  0  0  0  0  0  0  0  0  0
   -4.5351   -2.1118   -1.3631 C   0  0  0  0  0  0  0  0  0  0  0  0
    4.3040   -1.7445    0.7502 H   0  0  0  0  0  0  0  0  0  0  0  0
    3.6573   -1.8107    2.3989 H   0  0  0  0  0  0  0  0  0  0  0  0
    3.8636   -3.3033    1.4653 H   0  0  0  0  0  0  0  0  0  0  0  0
    1.4507   -2.5708    1.4998 H   0  0  0  0  0  0  0  0  0  0  0  0
    2.1335   -2.5570   -0.1511 H   0  0  0  0  0  0  0  0  0  0  0  0
    4.2051    2.7667    1.1916 H   0  0  0  0  0  0  0  0  0  0  0  0
    2.4274    2.7274    1.0375 H   0  0  0  0  0  0  0  0  0  0  0  0
    2.3281    0.8780    2.7112 H   0  0  0  0  0  0  0  0  0  0  0  0
    4.0926    0.9168    2.8628 H   0  0  0  0  0  0  0  0  0  0  0  0
    3.1269    2.3019    3.3947 H   0  0  0  0  0  0  0  0  0  0  0  0
    0.4872    0.1846   -2.5349 H   0  0  0  0  0  0  0  0  0  0  0  0
   -1.0075    1.1177   -2.1492 H   0  0  0  0  0  0  0  0  0  0  0  0
   -1.9308   -0.4924    2.8090 H   0  0  0  0  0  0  0  0  0  0  0  0
   -0.4397   -0.4040    1.8329 H   0  0  0  0  0  0  0  0  0  0  0  0
   -1.5744    1.8739    3.5369 H   0  0  0  0  0  0  0  0  0  0  0  0
   -0.1783    0.8726    3.9707 H   0  0  0  0  0  0  0  0  0  0  0  0
   -0.1040    1.9561    2.5653 H   0  0  0  0  0  0  0  0  0  0  0  0
   -2.8448   -2.9531   -0.3170 H   0  0  0  0  0  0  0  0  0  0  0  0
   -4.3521   -2.9001    0.6464 H   0  0  0  0  0  0  0  0  0  0  0  0
   -5.3948   -1.4807   -1.1506 H   0  0  0  0  0  0  0  0  0  0  0  0
   -3.9094   -1.6029   -2.0952 H   0  0  0  0  0  0  0  0  0  0  0  0
   -4.8744   -3.0537   -1.7819 H   0  0  0  0  0  0  0  0  0  0  0  0
  1  2  1  0  0  0  0
  2  3  1  0  0  0  0
  3  4  1  0  0  0  0
  4  5  2  0  0  0  0
  4  6  2  0  0  0  0
  6  7  1  0  0  0  0
  7  8  1  0  0  0  0
  4  9  1  0  0  0  0
  9 10  1  0  0  0  0
 10 11  1  0  0  0  0
 11 12  1  0  0  0  0
 12 13  2  0  0  0  0
 12 14  2  0  0  0  0
 14 15  1  0  0  0  0
 15 16  1  0  0  0  0
 12 17  2  0  0  0  0
 17 18  1  0  0  0  0
 18 19  1  0  0  0  0
  1 20  1  0  0  0  0
  1 21  1  0  0  0  0
  1 22  1  0  0  0  0
  2 23  1  0  0  0  0
  2 24  1  0  0  0  0
  7 25  1  0  0  0  0
  7 26  1  0  0  0  0
  8 27  1  0  0  0  0
  8 28  1  0  0  0  0
  8 29  1  0  0  0  0
 10 30  1  0  0  0  0
 10 31  1  0  0  0  0
 15 32  1  0  0  0  0
 15 33  1  0  0  0  0
 16 34  1  0  0  0  0
 16 35  1  0  0  0  0
 16 36  1  0  0  0  0
 18 37  1  0  0  0  0
 18 38  1  0  0  0  0
 19 39  1  0  0  0  0
 19 40  1  0  0  0  0
 19 41  1  0  0  0  0
M  END
