 xtb: 6.7.1 (edcfbbe)
          04092505203D

 41 40  0     0  0            999 V2000
    3.7379   -0.1593    2.1808 C   0  0  0  0  0  0  0  0  0  0  0  0
    4.1817   -0.7578    0.8625 C   0  0  0  0  0  0  0  0  0  0  0  0
    3.6349   -0.0616   -0.2820 O   0  0  0  0  0  0  0  0  0  0  0  0
    2.0972    0.1064   -0.6364 P   0  0  0  0  0  0  0  0  0  0  0  0
    1.8903    0.4924   -2.5415 S   0  0  0  0  0  0  0  0  0  0  0  0
    1.4897    1.2017    0.3603 O   0  0  0  0  0  0  0  0  0  0  0  0
    1.4670    2.5966    0.0251 C   0  0  0  0  0  0  0  0  0  0  0  0
    2.8516    3.2070    0.0829 C   0  0  0  0  0  0  0  0  0  0  0  0
    1.2291   -1.6571    0.1105 S   0  0  0  0  0  0  0  0  0  0  0  0
   -0.1592   -1.8744   -1.0536 C   0  0  0  0  0  0  0  0  0  0  0  0
   -1.7541   -1.9613   -0.2167 S   0  0  0  0  0  0  0  0  0  0  0  0
   -1.9604    0.1104    0.2241 P   0  0  0  0  0  0  0  0  0  0  0  0
   -1.4673    1.3369   -1.2229 S   0  0  0  0  0  0  0  0  0  0  0  0
   -1.1202    0.3822    1.5284 O   0  0  0  0  0  0  0  0  0  0  0  0
   -0.9965   -0.4828    2.6867 C   0  0  0  0  0  0  0  0  0  0  0  0
   -2.3313   -0.8808    3.2763 C   0  0  0  0  0  0  0  0  0  0  0  0
   -3.4600    0.2583    0.7248 O   0  0  0  0  0  0  0  0  0  0  0  0
   -4.5576    0.5021   -0.1704 C   0  0  0  0  0  0  0  0  0  0  0  0
   -4.8332   -0.6780   -1.0799 C   0  0  0  0  0  0  0  0  0  0  0  0
    4.0378    0.8834    2.2448 H   0  0  0  0  0  0  0  0  0  0  0  0
    2.6553   -0.2224    2.2749 H   0  0  0  0  0  0  0  0  0  0  0  0
    4.1969   -0.7141    2.9929 H   0  0  0  0  0  0  0  0  0  0  0  0
    3.8888   -1.8086    0.7950 H   0  0  0  0  0  0  0  0  0  0  0  0
    5.2593   -0.6646    0.7184 H   0  0  0  0  0  0  0  0  0  0  0  0
    1.0335    2.7103   -0.9746 H   0  0  0  0  0  0  0  0  0  0  0  0
    0.7895    3.0358    0.7596 H   0  0  0  0  0  0  0  0  0  0  0  0
    3.4983    2.7124   -0.6421 H   0  0  0  0  0  0  0  0  0  0  0  0
    2.7880    4.2627   -0.1617 H   0  0  0  0  0  0  0  0  0  0  0  0
    3.2757    3.0913    1.0766 H   0  0  0  0  0  0  0  0  0  0  0  0
   -0.0247   -2.8275   -1.5585 H   0  0  0  0  0  0  0  0  0  0  0  0
   -0.1504   -1.0454   -1.7676 H   0  0  0  0  0  0  0  0  0  0  0  0
   -0.4203   -1.3655    2.3939 H   0  0  0  0  0  0  0  0  0  0  0  0
   -0.4129    0.1233    3.3815 H   0  0  0  0  0  0  0  0  0  0  0  0
   -2.9280    0.0016    3.4917 H   0  0  0  0  0  0  0  0  0  0  0  0
   -2.8775   -1.5149    2.5813 H   0  0  0  0  0  0  0  0  0  0  0  0
   -2.1575   -1.4315    4.1957 H   0  0  0  0  0  0  0  0  0  0  0  0
   -5.3970    0.6999    0.4977 H   0  0  0  0  0  0  0  0  0  0  0  0
   -4.3322    1.3966   -0.7597 H   0  0  0  0  0  0  0  0  0  0  0  0
   -4.9346   -1.5904   -0.4980 H   0  0  0  0  0  0  0  0  0  0  0  0
   -5.7503   -0.4976   -1.6314 H   0  0  0  0  0  0  0  0  0  0  0  0
   -4.0164   -0.8014   -1.7893 H   0  0  0  0  0  0  0  0  0  0  0  0
  1  2  1  0  0  0  0
  2  3  1  0  0  0  0
  3  4  2  0  0  0  0
  4  5  2  0  0  0  0
  4  6  1  0  0  0  0
  6  7  1  0  0  0  0
  7  8  1  0  0  0  0
  4  9  1  0  0  0  0
  9 10  1  0  0  0  0
 10 11  1  0  0  0  0
 11 12  1  0  0  0  0
 12 13  2  0  0  0  0
 12 14  2  0  0  0  0
 14 15  1  0  0  0  0
 15 16  1  0  0  0  0
 12 17  2  0  0  0  0
 17 18  1  0  0  0  0
 18 19  1  0  0  0  0
  1 20  1  0  0  0  0
  1 21  1  0  0  0  0
  1 22  1  0  0  0  0
  2 23  1  0  0  0  0
  2 24  1  0  0  0  0
  7 25  1  0  0  0  0
  7 26  1  0  0  0  0
  8 27  1  0  0  0  0
  8 28  1  0  0  0  0
  8 29  1  0  0  0  0
 10 30  1  0  0  0  0
 10 31  1  0  0  0  0
 15 32  1  0  0  0  0
 15 33  1  0  0  0  0
 16 34  1  0  0  0  0
 16 35  1  0  0  0  0
 16 36  1  0  0  0  0
 18 37  1  0  0  0  0
 18 38  1  0  0  0  0
 19 39  1  0  0  0  0
 19 40  1  0  0  0  0
 19 41  1  0  0  0  0
M  END
