 xtb: 6.7.1 (edcfbbe)
          04092505213D

 41 40  0     0  0            999 V2000
    2.9473   -1.1416   -2.5252 C   0  0  0  0  0  0  0  0  0  0  0  0
    1.8611   -0.4006   -1.7707 C   0  0  0  0  0  0  0  0  0  0  0  0
    1.6246   -1.0451   -0.5118 O   0  0  0  0  0  0  0  0  0  0  0  0
    1.9373   -0.4077    0.9199 P   0  0  0  0  0  0  0  0  0  0  0  0
    3.0530    1.2075    0.8475 S   0  0  0  0  0  0  0  0  0  0  0  0
    2.4493   -1.6663    1.7377 O   0  0  0  0  0  0  0  0  0  0  0  0
    3.5452   -2.5037    1.3136 C   0  0  0  0  0  0  0  0  0  0  0  0
    4.8902   -1.8686    1.6070 C   0  0  0  0  0  0  0  0  0  0  0  0
    0.1291   -0.2567    1.9822 S   0  0  0  0  0  0  0  0  0  0  0  0
   -0.2966    1.4400    1.4985 C   0  0  0  0  0  0  0  0  0  0  0  0
   -0.3427    1.7207   -0.2986 S   0  0  0  0  0  0  0  0  0  0  0  0
   -1.9756    0.4949   -0.8523 P   0  0  0  0  0  0  0  0  0  0  0  0
   -2.6373    0.6928   -2.6840 S   0  0  0  0  0  0  0  0  0  0  0  0
   -3.0651    0.6918    0.2950 O   0  0  0  0  0  0  0  0  0  0  0  0
   -4.1415    1.6349    0.1570 C   0  0  0  0  0  0  0  0  0  0  0  0
   -3.6585    3.0684    0.2512 C   0  0  0  0  0  0  0  0  0  0  0  0
   -1.3543   -0.9204   -0.5021 O   0  0  0  0  0  0  0  0  0  0  0  0
   -1.9130   -2.1530   -0.9981 C   0  0  0  0  0  0  0  0  0  0  0  0
   -3.2494   -2.4654   -0.3593 C   0  0  0  0  0  0  0  0  0  0  0  0
    2.6774   -2.1876   -2.6432 H   0  0  0  0  0  0  0  0  0  0  0  0
    3.0677   -0.6901   -3.5045 H   0  0  0  0  0  0  0  0  0  0  0  0
    3.8887   -1.0720   -1.9844 H   0  0  0  0  0  0  0  0  0  0  0  0
    0.9107   -0.4201   -2.3115 H   0  0  0  0  0  0  0  0  0  0  0  0
    2.1511    0.6411   -1.5938 H   0  0  0  0  0  0  0  0  0  0  0  0
    3.4066   -3.4209    1.8892 H   0  0  0  0  0  0  0  0  0  0  0  0
    3.4337   -2.7188    0.2474 H   0  0  0  0  0  0  0  0  0  0  0  0
    4.9675   -1.6279    2.6640 H   0  0  0  0  0  0  0  0  0  0  0  0
    5.6810   -2.5615    1.3373 H   0  0  0  0  0  0  0  0  0  0  0  0
    5.0113   -0.9498    1.0363 H   0  0  0  0  0  0  0  0  0  0  0  0
    0.4637    2.1283    1.8665 H   0  0  0  0  0  0  0  0  0  0  0  0
   -1.2690    1.6501    1.9358 H   0  0  0  0  0  0  0  0  0  0  0  0
   -4.6300    1.4628   -0.8075 H   0  0  0  0  0  0  0  0  0  0  0  0
   -4.8224    1.3818    0.9707 H   0  0  0  0  0  0  0  0  0  0  0  0
   -2.9650    3.2796   -0.5628 H   0  0  0  0  0  0  0  0  0  0  0  0
   -4.5084    3.7383    0.1691 H   0  0  0  0  0  0  0  0  0  0  0  0
   -3.1551    3.2470    1.1979 H   0  0  0  0  0  0  0  0  0  0  0  0
   -2.0103   -2.0743   -2.0861 H   0  0  0  0  0  0  0  0  0  0  0  0
   -1.1577   -2.8986   -0.7441 H   0  0  0  0  0  0  0  0  0  0  0  0
   -3.5689   -3.4575   -0.6628 H   0  0  0  0  0  0  0  0  0  0  0  0
   -3.1635   -2.4267    0.7237 H   0  0  0  0  0  0  0  0  0  0  0  0
   -3.9940   -1.7395   -0.6823 H   0  0  0  0  0  0  0  0  0  0  0  0
  1  2  1  0  0  0  0
  2  3  1  0  0  0  0
  3  4  2  0  0  0  0
  4  5  2  0  0  0  0
  4  6  2  0  0  0  0
  6  7  1  0  0  0  0
  7  8  1  0  0  0  0
  4  9  1  0  0  0  0
  9 10  1  0  0  0  0
 10 11  1  0  0  0  0
 11 12  1  0  0  0  0
 12 13  2  0  0  0  0
 12 14  2  0  0  0  0
 14 15  1  0  0  0  0
 15 16  1  0  0  0  0
 12 17  2  0  0  0  0
 17 18  1  0  0  0  0
 18 19  1  0  0  0  0
  1 20  1  0  0  0  0
  1 21  1  0  0  0  0
  1 22  1  0  0  0  0
  2 23  1  0  0  0  0
  2 24  1  0  0  0  0
  7 25  1  0  0  0  0
  7 26  1  0  0  0  0
  8 27  1  0  0  0  0
  8 28  1  0  0  0  0
  8 29  1  0  0  0  0
 10 30  1  0  0  0  0
 10 31  1  0  0  0  0
 15 32  1  0  0  0  0
 15 33  1  0  0  0  0
 16 34  1  0  0  0  0
 16 35  1  0  0  0  0
 16 36  1  0  0  0  0
 18 37  1  0  0  0  0
 18 38  1  0  0  0  0
 19 39  1  0  0  0  0
 19 40  1  0  0  0  0
 19 41  1  0  0  0  0
M  END
