 xtb: 6.7.1 (edcfbbe)
          04092505203D

 41 40  0     0  0            999 V2000
    4.6088   -1.2125   -1.4670 C   0  0  0  0  0  0  0  0  0  0  0  0
    4.3364   -1.3301    0.0185 C   0  0  0  0  0  0  0  0  0  0  0  0
    3.5692   -0.2311    0.5417 O   0  0  0  0  0  0  0  0  0  0  0  0
    2.1743    0.2924   -0.0179 P   0  0  0  0  0  0  0  0  0  0  0  0
    2.2231    1.3498   -1.6743 S   0  0  0  0  0  0  0  0  0  0  0  0
    1.6510    1.0549    1.2717 O   0  0  0  0  0  0  0  0  0  0  0  0
    1.8192    2.4718    1.4460 C   0  0  0  0  0  0  0  0  0  0  0  0
    3.2733    2.8345    1.6577 C   0  0  0  0  0  0  0  0  0  0  0  0
    0.9990   -1.4540   -0.0174 S   0  0  0  0  0  0  0  0  0  0  0  0
   -0.0580   -1.1613   -1.4839 C   0  0  0  0  0  0  0  0  0  0  0  0
   -1.7939   -1.5199   -1.1687 S   0  0  0  0  0  0  0  0  0  0  0  0
   -2.3526    0.2260   -0.0786 P   0  0  0  0  0  0  0  0  0  0  0  0
   -1.1300    1.7497   -0.2443 S   0  0  0  0  0  0  0  0  0  0  0  0
   -2.6480   -0.2095    1.4242 O   0  0  0  0  0  0  0  0  0  0  0  0
   -1.6316   -0.5174    2.3925 C   0  0  0  0  0  0  0  0  0  0  0  0
   -1.4734   -2.0184    2.5443 C   0  0  0  0  0  0  0  0  0  0  0  0
   -3.7880    0.5911   -0.5959 O   0  0  0  0  0  0  0  0  0  0  0  0
   -4.8248   -0.3404   -0.9995 C   0  0  0  0  0  0  0  0  0  0  0  0
   -5.1155   -1.3905    0.0495 C   0  0  0  0  0  0  0  0  0  0  0  0
    5.0849   -0.2612   -1.6926 H   0  0  0  0  0  0  0  0  0  0  0  0
    5.2594   -2.0233   -1.7784 H   0  0  0  0  0  0  0  0  0  0  0  0
    3.6770   -1.2679   -2.0279 H   0  0  0  0  0  0  0  0  0  0  0  0
    5.2617   -1.2915    0.5964 H   0  0  0  0  0  0  0  0  0  0  0  0
    3.7992   -2.2563    0.2418 H   0  0  0  0  0  0  0  0  0  0  0  0
    1.4066    2.9816    0.5683 H   0  0  0  0  0  0  0  0  0  0  0  0
    1.2057    2.7058    2.3172 H   0  0  0  0  0  0  0  0  0  0  0  0
    3.8443    2.5888    0.7627 H   0  0  0  0  0  0  0  0  0  0  0  0
    3.3557    3.8995    1.8502 H   0  0  0  0  0  0  0  0  0  0  0  0
    3.6792    2.2770    2.4975 H   0  0  0  0  0  0  0  0  0  0  0  0
    0.2481   -1.8487   -2.2683 H   0  0  0  0  0  0  0  0  0  0  0  0
    0.0653   -0.1204   -1.7952 H   0  0  0  0  0  0  0  0  0  0  0  0
   -0.6898   -0.0400    2.0992 H   0  0  0  0  0  0  0  0  0  0  0  0
   -1.9836   -0.0624    3.3206 H   0  0  0  0  0  0  0  0  0  0  0  0
   -1.1118   -2.4647    1.6208 H   0  0  0  0  0  0  0  0  0  0  0  0
   -0.7543   -2.2196    3.3317 H   0  0  0  0  0  0  0  0  0  0  0  0
   -2.4283   -2.4654    2.8052 H   0  0  0  0  0  0  0  0  0  0  0  0
   -5.6838    0.3099   -1.1714 H   0  0  0  0  0  0  0  0  0  0  0  0
   -4.5142   -0.8030   -1.9394 H   0  0  0  0  0  0  0  0  0  0  0  0
   -4.2563   -2.0471    0.1713 H   0  0  0  0  0  0  0  0  0  0  0  0
   -5.3410   -0.9187    1.0023 H   0  0  0  0  0  0  0  0  0  0  0  0
   -5.9679   -1.9819   -0.2705 H   0  0  0  0  0  0  0  0  0  0  0  0
  1  2  1  0  0  0  0
  2  3  1  0  0  0  0
  3  4  2  0  0  0  0
  4  5  2  0  0  0  0
  4  6  2  0  0  0  0
  6  7  1  0  0  0  0
  7  8  1  0  0  0  0
  4  9  1  0  0  0  0
  9 10  1  0  0  0  0
 10 11  1  0  0  0  0
 11 12  1  0  0  0  0
 12 13  2  0  0  0  0
 12 14  2  0  0  0  0
 14 15  1  0  0  0  0
 15 16  1  0  0  0  0
 12 17  2  0  0  0  0
 17 18  1  0  0  0  0
 18 19  1  0  0  0  0
  1 20  1  0  0  0  0
  1 21  1  0  0  0  0
  1 22  1  0  0  0  0
  2 23  1  0  0  0  0
  2 24  1  0  0  0  0
  7 25  1  0  0  0  0
  7 26  1  0  0  0  0
  8 27  1  0  0  0  0
  8 28  1  0  0  0  0
  8 29  1  0  0  0  0
 10 30  1  0  0  0  0
 10 31  1  0  0  0  0
 15 32  1  0  0  0  0
 15 33  1  0  0  0  0
 16 34  1  0  0  0  0
 16 35  1  0  0  0  0
 16 36  1  0  0  0  0
 18 37  1  0  0  0  0
 18 38  1  0  0  0  0
 19 39  1  0  0  0  0
 19 40  1  0  0  0  0
 19 41  1  0  0  0  0
M  END
