 xtb: 6.7.1 (edcfbbe)
          04092505213D

 41 40  0     0  0            999 V2000
    2.3538   -0.6177   -2.6400 C   0  0  0  0  0  0  0  0  0  0  0  0
    3.0495    0.5144   -1.9147 C   0  0  0  0  0  0  0  0  0  0  0  0
    2.4615    0.8195   -0.6259 O   0  0  0  0  0  0  0  0  0  0  0  0
    2.2822   -0.1859    0.5774 P   0  0  0  0  0  0  0  0  0  0  0  0
    2.2424    0.8088    2.2653 S   0  0  0  0  0  0  0  0  0  0  0  0
    3.4994   -1.1814    0.3414 O   0  0  0  0  0  0  0  0  0  0  0  0
    3.6322   -2.4898    0.9280 C   0  0  0  0  0  0  0  0  0  0  0  0
    3.5539   -2.4707    2.4399 C   0  0  0  0  0  0  0  0  0  0  0  0
    0.5574   -1.3807    0.1997 S   0  0  0  0  0  0  0  0  0  0  0  0
   -0.5512   -0.6667    1.4357 C   0  0  0  0  0  0  0  0  0  0  0  0
   -1.0867    1.0322    1.0734 S   0  0  0  0  0  0  0  0  0  0  0  0
   -2.1106    0.7290   -0.7565 P   0  0  0  0  0  0  0  0  0  0  0  0
   -1.1283    0.6522   -2.4393 S   0  0  0  0  0  0  0  0  0  0  0  0
   -3.1094    1.9584   -0.8015 O   0  0  0  0  0  0  0  0  0  0  0  0
   -4.0577    2.2595    0.2526 C   0  0  0  0  0  0  0  0  0  0  0  0
   -3.6198    3.4923    1.0174 C   0  0  0  0  0  0  0  0  0  0  0  0
   -3.0055   -0.5492   -0.4140 O   0  0  0  0  0  0  0  0  0  0  0  0
   -3.1934   -1.6767   -1.2974 C   0  0  0  0  0  0  0  0  0  0  0  0
   -2.6341   -2.9379   -0.6708 C   0  0  0  0  0  0  0  0  0  0  0  0
    2.4392   -1.5453   -2.0775 H   0  0  0  0  0  0  0  0  0  0  0  0
    1.3006   -0.3880   -2.7863 H   0  0  0  0  0  0  0  0  0  0  0  0
    2.8211   -0.7497   -3.6107 H   0  0  0  0  0  0  0  0  0  0  0  0
    2.9500    1.4540   -2.4603 H   0  0  0  0  0  0  0  0  0  0  0  0
    4.1048    0.2861   -1.7513 H   0  0  0  0  0  0  0  0  0  0  0  0
    2.8530   -3.1329    0.5087 H   0  0  0  0  0  0  0  0  0  0  0  0
    4.6129   -2.8233    0.5842 H   0  0  0  0  0  0  0  0  0  0  0  0
    3.7576   -3.4656    2.8225 H   0  0  0  0  0  0  0  0  0  0  0  0
    4.2786   -1.7709    2.8489 H   0  0  0  0  0  0  0  0  0  0  0  0
    2.5614   -2.1611    2.7630 H   0  0  0  0  0  0  0  0  0  0  0  0
   -0.0337   -0.5936    2.3924 H   0  0  0  0  0  0  0  0  0  0  0  0
   -1.4183   -1.3190    1.4956 H   0  0  0  0  0  0  0  0  0  0  0  0
   -5.0031    2.4315   -0.2648 H   0  0  0  0  0  0  0  0  0  0  0  0
   -4.1488    1.3925    0.9107 H   0  0  0  0  0  0  0  0  0  0  0  0
   -3.4940    4.3281    0.3346 H   0  0  0  0  0  0  0  0  0  0  0  0
   -4.3760    3.7413    1.7551 H   0  0  0  0  0  0  0  0  0  0  0  0
   -2.6737    3.3110    1.5238 H   0  0  0  0  0  0  0  0  0  0  0  0
   -4.2721   -1.7523   -1.4473 H   0  0  0  0  0  0  0  0  0  0  0  0
   -2.7052   -1.4609   -2.2534 H   0  0  0  0  0  0  0  0  0  0  0  0
   -3.0877   -3.1092    0.3016 H   0  0  0  0  0  0  0  0  0  0  0  0
   -2.8585   -3.7780   -1.3198 H   0  0  0  0  0  0  0  0  0  0  0  0
   -1.5543   -2.8596   -0.5574 H   0  0  0  0  0  0  0  0  0  0  0  0
  1  2  1  0  0  0  0
  2  3  1  0  0  0  0
  3  4  2  0  0  0  0
  4  5  2  0  0  0  0
  4  6  2  0  0  0  0
  6  7  1  0  0  0  0
  7  8  1  0  0  0  0
  4  9  1  0  0  0  0
  9 10  1  0  0  0  0
 10 11  1  0  0  0  0
 11 12  1  0  0  0  0
 12 13  2  0  0  0  0
 12 14  2  0  0  0  0
 14 15  1  0  0  0  0
 15 16  1  0  0  0  0
 12 17  2  0  0  0  0
 17 18  1  0  0  0  0
 18 19  1  0  0  0  0
  1 20  1  0  0  0  0
  1 21  1  0  0  0  0
  1 22  1  0  0  0  0
  2 23  1  0  0  0  0
  2 24  1  0  0  0  0
  7 25  1  0  0  0  0
  7 26  1  0  0  0  0
  8 27  1  0  0  0  0
  8 28  1  0  0  0  0
  8 29  1  0  0  0  0
 10 30  1  0  0  0  0
 10 31  1  0  0  0  0
 15 32  1  0  0  0  0
 15 33  1  0  0  0  0
 16 34  1  0  0  0  0
 16 35  1  0  0  0  0
 16 36  1  0  0  0  0
 18 37  1  0  0  0  0
 18 38  1  0  0  0  0
 19 39  1  0  0  0  0
 19 40  1  0  0  0  0
 19 41  1  0  0  0  0
M  END
