 xtb: 6.7.1 (edcfbbe)
          04092505213D

 41 40  0     0  0            999 V2000
    4.0695   -2.6906   -0.3153 C   0  0  0  0  0  0  0  0  0  0  0  0
    4.6183   -1.3601    0.1582 C   0  0  0  0  0  0  0  0  0  0  0  0
    3.5949   -0.5214    0.7224 O   0  0  0  0  0  0  0  0  0  0  0  0
    2.4215    0.0966   -0.1524 P   0  0  0  0  0  0  0  0  0  0  0  0
    2.9417    0.7220   -1.9419 S   0  0  0  0  0  0  0  0  0  0  0  0
    1.8323    1.1954    0.8256 O   0  0  0  0  0  0  0  0  0  0  0  0
    2.2594    2.5704    0.7867 C   0  0  0  0  0  0  0  0  0  0  0  0
    3.6872    2.7270    1.2659 C   0  0  0  0  0  0  0  0  0  0  0  0
    0.8721   -1.3313   -0.0487 S   0  0  0  0  0  0  0  0  0  0  0  0
   -0.1333   -0.6290   -1.3765 C   0  0  0  0  0  0  0  0  0  0  0  0
   -0.9693    0.9294   -0.9281 S   0  0  0  0  0  0  0  0  0  0  0  0
   -2.6275    0.1384    0.0998 P   0  0  0  0  0  0  0  0  0  0  0  0
   -3.9694    1.4091    0.7500 S   0  0  0  0  0  0  0  0  0  0  0  0
   -2.0732   -0.8558    1.2221 O   0  0  0  0  0  0  0  0  0  0  0  0
   -1.9389   -0.4583    2.5954 C   0  0  0  0  0  0  0  0  0  0  0  0
   -0.8724    0.6012    2.7808 C   0  0  0  0  0  0  0  0  0  0  0  0
   -3.1173   -0.8924   -1.0028 O   0  0  0  0  0  0  0  0  0  0  0  0
   -4.3195   -1.6703   -0.7913 C   0  0  0  0  0  0  0  0  0  0  0  0
   -4.7742   -2.1986   -2.1357 C   0  0  0  0  0  0  0  0  0  0  0  0
    3.5058   -3.1716    0.4800 H   0  0  0  0  0  0  0  0  0  0  0  0
    3.4110   -2.5391   -1.1696 H   0  0  0  0  0  0  0  0  0  0  0  0
    4.8919   -3.3324   -0.6148 H   0  0  0  0  0  0  0  0  0  0  0  0
    5.0879   -0.8218   -0.6713 H   0  0  0  0  0  0  0  0  0  0  0  0
    5.3329   -1.4848    0.9728 H   0  0  0  0  0  0  0  0  0  0  0  0
    2.1485    2.9388   -0.2384 H   0  0  0  0  0  0  0  0  0  0  0  0
    1.5520    3.0843    1.4389 H   0  0  0  0  0  0  0  0  0  0  0  0
    3.8042    2.2797    2.2495 H   0  0  0  0  0  0  0  0  0  0  0  0
    4.3665    2.2341    0.5712 H   0  0  0  0  0  0  0  0  0  0  0  0
    3.9376    3.7820    1.3148 H   0  0  0  0  0  0  0  0  0  0  0  0
   -0.8772   -1.3694   -1.6524 H   0  0  0  0  0  0  0  0  0  0  0  0
    0.5131   -0.3801   -2.2191 H   0  0  0  0  0  0  0  0  0  0  0  0
   -2.9082   -0.0839    2.9404 H   0  0  0  0  0  0  0  0  0  0  0  0
   -1.6854   -1.3836    3.1140 H   0  0  0  0  0  0  0  0  0  0  0  0
   -0.7900    0.8503    3.8338 H   0  0  0  0  0  0  0  0  0  0  0  0
    0.0900    0.2481    2.4185 H   0  0  0  0  0  0  0  0  0  0  0  0
   -1.1490    1.4988    2.2260 H   0  0  0  0  0  0  0  0  0  0  0  0
   -4.0801   -2.4806   -0.0986 H   0  0  0  0  0  0  0  0  0  0  0  0
   -5.0761   -1.0211   -0.3377 H   0  0  0  0  0  0  0  0  0  0  0  0
   -4.9750   -1.3724   -2.8119 H   0  0  0  0  0  0  0  0  0  0  0  0
   -4.0049   -2.8303   -2.5702 H   0  0  0  0  0  0  0  0  0  0  0  0
   -5.6811   -2.7790   -2.0003 H   0  0  0  0  0  0  0  0  0  0  0  0
  1  2  1  0  0  0  0
  2  3  1  0  0  0  0
  3  4  2  0  0  0  0
  4  5  2  0  0  0  0
  4  6  2  0  0  0  0
  6  7  1  0  0  0  0
  7  8  1  0  0  0  0
  4  9  1  0  0  0  0
  9 10  1  0  0  0  0
 10 11  1  0  0  0  0
 11 12  1  0  0  0  0
 12 13  2  0  0  0  0
 12 14  2  0  0  0  0
 14 15  1  0  0  0  0
 15 16  1  0  0  0  0
 12 17  2  0  0  0  0
 17 18  1  0  0  0  0
 18 19  1  0  0  0  0
  1 20  1  0  0  0  0
  1 21  1  0  0  0  0
  1 22  1  0  0  0  0
  2 23  1  0  0  0  0
  2 24  1  0  0  0  0
  7 25  1  0  0  0  0
  7 26  1  0  0  0  0
  8 27  1  0  0  0  0
  8 28  1  0  0  0  0
  8 29  1  0  0  0  0
 10 30  1  0  0  0  0
 10 31  1  0  0  0  0
 15 32  1  0  0  0  0
 15 33  1  0  0  0  0
 16 34  1  0  0  0  0
 16 35  1  0  0  0  0
 16 36  1  0  0  0  0
 18 37  1  0  0  0  0
 18 38  1  0  0  0  0
 19 39  1  0  0  0  0
 19 40  1  0  0  0  0
 19 41  1  0  0  0  0
M  END
