 xtb: 6.7.1 (edcfbbe)
          04092505213D

 41 40  0     0  0            999 V2000
    2.0494    1.0743   -2.6242 C   0  0  0  0  0  0  0  0  0  0  0  0
    3.0782    0.0176   -2.2740 C   0  0  0  0  0  0  0  0  0  0  0  0
    2.7411   -0.6961   -1.0723 O   0  0  0  0  0  0  0  0  0  0  0  0
    2.7629    0.0173    0.3490 P   0  0  0  0  0  0  0  0  0  0  0  0
    4.1010    1.4227    0.6046 S   0  0  0  0  0  0  0  0  0  0  0  0
    2.9692   -1.3088    1.2011 O   0  0  0  0  0  0  0  0  0  0  0  0
    3.4740   -1.2638    2.5495 C   0  0  0  0  0  0  0  0  0  0  0  0
    2.4776   -0.6523    3.5149 C   0  0  0  0  0  0  0  0  0  0  0  0
    0.7405    0.5514    0.6930 S   0  0  0  0  0  0  0  0  0  0  0  0
    0.0321   -1.0915    0.2994 C   0  0  0  0  0  0  0  0  0  0  0  0
   -1.6776   -1.1647    0.8305 S   0  0  0  0  0  0  0  0  0  0  0  0
   -2.4391    0.1134   -0.7038 P   0  0  0  0  0  0  0  0  0  0  0  0
   -1.6154   -0.1900   -2.4558 S   0  0  0  0  0  0  0  0  0  0  0  0
   -2.2256    1.6237   -0.3129 O   0  0  0  0  0  0  0  0  0  0  0  0
   -2.9173    2.3686    0.7181 C   0  0  0  0  0  0  0  0  0  0  0  0
   -2.5570    1.9027    2.1137 C   0  0  0  0  0  0  0  0  0  0  0  0
   -4.0126   -0.0412   -0.5644 O   0  0  0  0  0  0  0  0  0  0  0  0
   -4.7173   -1.2920   -0.4480 C   0  0  0  0  0  0  0  0  0  0  0  0
   -4.4156   -2.2417   -1.5880 C   0  0  0  0  0  0  0  0  0  0  0  0
    2.0181    1.8367   -1.8452 H   0  0  0  0  0  0  0  0  0  0  0  0
    2.3233    1.5450   -3.5629 H   0  0  0  0  0  0  0  0  0  0  0  0
    1.0586    0.6353   -2.7278 H   0  0  0  0  0  0  0  0  0  0  0  0
    4.0633    0.4759   -2.1399 H   0  0  0  0  0  0  0  0  0  0  0  0
    3.1298   -0.7602   -3.0369 H   0  0  0  0  0  0  0  0  0  0  0  0
    3.6786   -2.3090    2.7860 H   0  0  0  0  0  0  0  0  0  0  0  0
    4.4078   -0.6931    2.5505 H   0  0  0  0  0  0  0  0  0  0  0  0
    2.3200    0.3976    3.2693 H   0  0  0  0  0  0  0  0  0  0  0  0
    1.5244   -1.1734    3.4668 H   0  0  0  0  0  0  0  0  0  0  0  0
    2.8713   -0.7212    4.5240 H   0  0  0  0  0  0  0  0  0  0  0  0
    0.5816   -1.8603    0.8368 H   0  0  0  0  0  0  0  0  0  0  0  0
    0.0760   -1.2488   -0.7803 H   0  0  0  0  0  0  0  0  0  0  0  0
   -2.5845    3.3929    0.5432 H   0  0  0  0  0  0  0  0  0  0  0  0
   -3.9909    2.2892    0.5378 H   0  0  0  0  0  0  0  0  0  0  0  0
   -1.4754    1.8664    2.2265 H   0  0  0  0  0  0  0  0  0  0  0  0
   -2.9671    2.6030    2.8347 H   0  0  0  0  0  0  0  0  0  0  0  0
   -2.9662    0.9143    2.3094 H   0  0  0  0  0  0  0  0  0  0  0  0
   -4.4529   -1.7441    0.5118 H   0  0  0  0  0  0  0  0  0  0  0  0
   -5.7674   -0.9944   -0.4437 H   0  0  0  0  0  0  0  0  0  0  0  0
   -4.6179   -1.7647   -2.5443 H   0  0  0  0  0  0  0  0  0  0  0  0
   -3.3670   -2.5349   -1.5658 H   0  0  0  0  0  0  0  0  0  0  0  0
   -5.0328   -3.1290   -1.4913 H   0  0  0  0  0  0  0  0  0  0  0  0
  1  2  1  0  0  0  0
  2  3  1  0  0  0  0
  3  4  2  0  0  0  0
  4  5  2  0  0  0  0
  4  6  2  0  0  0  0
  6  7  1  0  0  0  0
  7  8  1  0  0  0  0
  4  9  1  0  0  0  0
  9 10  1  0  0  0  0
 10 11  1  0  0  0  0
 11 12  1  0  0  0  0
 12 13  2  0  0  0  0
 12 14  2  0  0  0  0
 14 15  1  0  0  0  0
 15 16  1  0  0  0  0
 12 17  2  0  0  0  0
 17 18  1  0  0  0  0
 18 19  1  0  0  0  0
  1 20  1  0  0  0  0
  1 21  1  0  0  0  0
  1 22  1  0  0  0  0
  2 23  1  0  0  0  0
  2 24  1  0  0  0  0
  7 25  1  0  0  0  0
  7 26  1  0  0  0  0
  8 27  1  0  0  0  0
  8 28  1  0  0  0  0
  8 29  1  0  0  0  0
 10 30  1  0  0  0  0
 10 31  1  0  0  0  0
 15 32  1  0  0  0  0
 15 33  1  0  0  0  0
 16 34  1  0  0  0  0
 16 35  1  0  0  0  0
 16 36  1  0  0  0  0
 18 37  1  0  0  0  0
 18 38  1  0  0  0  0
 19 39  1  0  0  0  0
 19 40  1  0  0  0  0
 19 41  1  0  0  0  0
M  END
