 xtb: 6.7.1 (edcfbbe)
          04092505213D

 41 40  0     0  0            999 V2000
    2.0691   -2.1196    2.7088 C   0  0  0  0  0  0  0  0  0  0  0  0
    1.2032   -1.7033    1.5362 C   0  0  0  0  0  0  0  0  0  0  0  0
    1.4174   -0.3113    1.2488 O   0  0  0  0  0  0  0  0  0  0  0  0
    2.1662    0.2550   -0.0399 P   0  0  0  0  0  0  0  0  0  0  0  0
    3.1591   -1.0976   -1.0575 S   0  0  0  0  0  0  0  0  0  0  0  0
    2.9320    1.5123    0.5437 O   0  0  0  0  0  0  0  0  0  0  0  0
    3.8894    1.4271    1.6225 C   0  0  0  0  0  0  0  0  0  0  0  0
    5.2550    0.9910    1.1294 C   0  0  0  0  0  0  0  0  0  0  0  0
    0.7671    1.4152   -1.1214 S   0  0  0  0  0  0  0  0  0  0  0  0
    0.2172    0.1071   -2.2510 C   0  0  0  0  0  0  0  0  0  0  0  0
   -0.5230   -1.2960   -1.3712 S   0  0  0  0  0  0  0  0  0  0  0  0
   -2.1084   -0.2279   -0.4678 P   0  0  0  0  0  0  0  0  0  0  0  0
   -2.9124    1.2197   -1.5205 S   0  0  0  0  0  0  0  0  0  0  0  0
   -1.6133    0.2133    0.9827 O   0  0  0  0  0  0  0  0  0  0  0  0
   -1.4849    1.5723    1.4334 C   0  0  0  0  0  0  0  0  0  0  0  0
   -2.5991    1.8957    2.4091 C   0  0  0  0  0  0  0  0  0  0  0  0
   -2.9570   -1.5275   -0.1520 O   0  0  0  0  0  0  0  0  0  0  0  0
   -4.1248   -1.5176    0.6991 C   0  0  0  0  0  0  0  0  0  0  0  0
   -5.3691   -1.1089   -0.0646 C   0  0  0  0  0  0  0  0  0  0  0  0
    1.8692   -1.4873    3.5696 H   0  0  0  0  0  0  0  0  0  0  0  0
    1.8486   -3.1512    2.9628 H   0  0  0  0  0  0  0  0  0  0  0  0
    3.1206   -2.0392    2.4407 H   0  0  0  0  0  0  0  0  0  0  0  0
    0.1391   -1.8012    1.7619 H   0  0  0  0  0  0  0  0  0  0  0  0
    1.4412   -2.2956    0.6467 H   0  0  0  0  0  0  0  0  0  0  0  0
    3.9188    2.4420    2.0233 H   0  0  0  0  0  0  0  0  0  0  0  0
    3.5064    0.7419    2.3834 H   0  0  0  0  0  0  0  0  0  0  0  0
    5.9556    1.0007    1.9585 H   0  0  0  0  0  0  0  0  0  0  0  0
    5.2079   -0.0138    0.7140 H   0  0  0  0  0  0  0  0  0  0  0  0
    5.6058    1.6669    0.3542 H   0  0  0  0  0  0  0  0  0  0  0  0
    1.0681   -0.2869   -2.8059 H   0  0  0  0  0  0  0  0  0  0  0  0
   -0.5182    0.5585   -2.9162 H   0  0  0  0  0  0  0  0  0  0  0  0
   -0.5012    1.6352    1.9034 H   0  0  0  0  0  0  0  0  0  0  0  0
   -1.5181    2.2439    0.5696 H   0  0  0  0  0  0  0  0  0  0  0  0
   -3.5605    1.8521    1.9010 H   0  0  0  0  0  0  0  0  0  0  0  0
   -2.5965    1.1887    3.2342 H   0  0  0  0  0  0  0  0  0  0  0  0
   -2.4512    2.8988    2.7956 H   0  0  0  0  0  0  0  0  0  0  0  0
   -4.1985   -2.5476    1.0530 H   0  0  0  0  0  0  0  0  0  0  0  0
   -3.9431   -0.8503    1.5458 H   0  0  0  0  0  0  0  0  0  0  0  0
   -5.5154   -1.7653   -0.9181 H   0  0  0  0  0  0  0  0  0  0  0  0
   -6.2310   -1.1759    0.5919 H   0  0  0  0  0  0  0  0  0  0  0  0
   -5.2760   -0.0874   -0.4276 H   0  0  0  0  0  0  0  0  0  0  0  0
  1  2  1  0  0  0  0
  2  3  1  0  0  0  0
  3  4  2  0  0  0  0
  4  5  2  0  0  0  0
  4  6  2  0  0  0  0
  6  7  1  0  0  0  0
  7  8  1  0  0  0  0
  4  9  1  0  0  0  0
  9 10  1  0  0  0  0
 10 11  1  0  0  0  0
 11 12  1  0  0  0  0
 12 13  2  0  0  0  0
 12 14  2  0  0  0  0
 14 15  1  0  0  0  0
 15 16  1  0  0  0  0
 12 17  2  0  0  0  0
 17 18  1  0  0  0  0
 18 19  1  0  0  0  0
  1 20  1  0  0  0  0
  1 21  1  0  0  0  0
  1 22  1  0  0  0  0
  2 23  1  0  0  0  0
  2 24  1  0  0  0  0
  7 25  1  0  0  0  0
  7 26  1  0  0  0  0
  8 27  1  0  0  0  0
  8 28  1  0  0  0  0
  8 29  1  0  0  0  0
 10 30  1  0  0  0  0
 10 31  1  0  0  0  0
 15 32  1  0  0  0  0
 15 33  1  0  0  0  0
 16 34  1  0  0  0  0
 16 35  1  0  0  0  0
 16 36  1  0  0  0  0
 18 37  1  0  0  0  0
 18 38  1  0  0  0  0
 19 39  1  0  0  0  0
 19 40  1  0  0  0  0
 19 41  1  0  0  0  0
M  END
