 xtb: 6.7.1 (edcfbbe)
          04092505213D

 41 40  0     0  0            999 V2000
    4.1390    2.1601   -0.0289 C   0  0  0  0  0  0  0  0  0  0  0  0
    4.1337    0.8177   -0.7291 C   0  0  0  0  0  0  0  0  0  0  0  0
    2.8119    0.2345   -0.7894 O   0  0  0  0  0  0  0  0  0  0  0  0
    1.9895   -0.2373    0.4784 P   0  0  0  0  0  0  0  0  0  0  0  0
    1.1094    1.1189    1.5932 S   0  0  0  0  0  0  0  0  0  0  0  0
    3.0703   -1.0858    1.2814 O   0  0  0  0  0  0  0  0  0  0  0  0
    2.8463   -1.4975    2.6388 C   0  0  0  0  0  0  0  0  0  0  0  0
    1.8096   -2.5990    2.7173 C   0  0  0  0  0  0  0  0  0  0  0  0
    0.7668   -1.7095   -0.4679 S   0  0  0  0  0  0  0  0  0  0  0  0
    0.3823   -0.8250   -2.0040 C   0  0  0  0  0  0  0  0  0  0  0  0
   -0.3208    0.8216   -1.7415 S   0  0  0  0  0  0  0  0  0  0  0  0
   -2.1416    0.1479   -0.9020 P   0  0  0  0  0  0  0  0  0  0  0  0
   -2.9602   -1.4193   -1.7305 S   0  0  0  0  0  0  0  0  0  0  0  0
   -3.0907    1.4110   -0.9968 O   0  0  0  0  0  0  0  0  0  0  0  0
   -2.6942    2.7889   -0.8039 C   0  0  0  0  0  0  0  0  0  0  0  0
   -2.3080    3.0886    0.6293 C   0  0  0  0  0  0  0  0  0  0  0  0
   -1.7279   -0.0447    0.6274 O   0  0  0  0  0  0  0  0  0  0  0  0
   -2.3071   -1.0517    1.4722 C   0  0  0  0  0  0  0  0  0  0  0  0
   -3.7262   -0.6910    1.8593 C   0  0  0  0  0  0  0  0  0  0  0  0
    3.8699    2.0412    1.0194 H   0  0  0  0  0  0  0  0  0  0  0  0
    5.1315    2.5949   -0.0935 H   0  0  0  0  0  0  0  0  0  0  0  0
    3.4203    2.8304   -0.4945 H   0  0  0  0  0  0  0  0  0  0  0  0
    4.7991    0.1100   -0.2303 H   0  0  0  0  0  0  0  0  0  0  0  0
    4.4132    0.9155   -1.7796 H   0  0  0  0  0  0  0  0  0  0  0  0
    3.8248   -1.8352    2.9821 H   0  0  0  0  0  0  0  0  0  0  0  0
    2.5271   -0.6238    3.2177 H   0  0  0  0  0  0  0  0  0  0  0  0
    1.6936   -2.9184    3.7478 H   0  0  0  0  0  0  0  0  0  0  0  0
    0.8525   -2.2277    2.3490 H   0  0  0  0  0  0  0  0  0  0  0  0
    2.1076   -3.4457    2.1047 H   0  0  0  0  0  0  0  0  0  0  0  0
   -0.3423   -1.4476   -2.5313 H   0  0  0  0  0  0  0  0  0  0  0  0
    1.2892   -0.6885   -2.5868 H   0  0  0  0  0  0  0  0  0  0  0  0
   -1.8675    3.0086   -1.4853 H   0  0  0  0  0  0  0  0  0  0  0  0
   -3.5811    3.3482   -1.1069 H   0  0  0  0  0  0  0  0  0  0  0  0
   -2.1046    4.1505    0.7259 H   0  0  0  0  0  0  0  0  0  0  0  0
   -3.1175    2.8176    1.3021 H   0  0  0  0  0  0  0  0  0  0  0  0
   -1.4145    2.5350    0.9130 H   0  0  0  0  0  0  0  0  0  0  0  0
   -2.2774   -2.0115    0.9458 H   0  0  0  0  0  0  0  0  0  0  0  0
   -1.6453   -1.0811    2.3397 H   0  0  0  0  0  0  0  0  0  0  0  0
   -3.7434    0.2620    2.3813 H   0  0  0  0  0  0  0  0  0  0  0  0
   -4.3402   -0.6149    0.9617 H   0  0  0  0  0  0  0  0  0  0  0  0
   -4.1328   -1.4639    2.5035 H   0  0  0  0  0  0  0  0  0  0  0  0
  1  2  1  0  0  0  0
  2  3  1  0  0  0  0
  3  4  2  0  0  0  0
  4  5  2  0  0  0  0
  4  6  2  0  0  0  0
  6  7  1  0  0  0  0
  7  8  1  0  0  0  0
  4  9  1  0  0  0  0
  9 10  1  0  0  0  0
 10 11  1  0  0  0  0
 11 12  1  0  0  0  0
 12 13  2  0  0  0  0
 12 14  2  0  0  0  0
 14 15  1  0  0  0  0
 15 16  1  0  0  0  0
 12 17  1  0  0  0  0
 17 18  1  0  0  0  0
 18 19  1  0  0  0  0
  1 20  1  0  0  0  0
  1 21  1  0  0  0  0
  1 22  1  0  0  0  0
  2 23  1  0  0  0  0
  2 24  1  0  0  0  0
  7 25  1  0  0  0  0
  7 26  1  0  0  0  0
  8 27  1  0  0  0  0
  8 28  1  0  0  0  0
  8 29  1  0  0  0  0
 10 30  1  0  0  0  0
 10 31  1  0  0  0  0
 15 32  1  0  0  0  0
 15 33  1  0  0  0  0
 16 34  1  0  0  0  0
 16 35  1  0  0  0  0
 16 36  1  0  0  0  0
 18 37  1  0  0  0  0
 18 38  1  0  0  0  0
 19 39  1  0  0  0  0
 19 40  1  0  0  0  0
 19 41  1  0  0  0  0
M  END
