 xtb: 6.7.1 (edcfbbe)
          04092505203D

 41 40  0     0  0            999 V2000
    3.7526    1.4328   -2.0371 C   0  0  0  0  0  0  0  0  0  0  0  0
    2.7321    0.3161   -2.1403 C   0  0  0  0  0  0  0  0  0  0  0  0
    2.8253   -0.5625   -1.0003 O   0  0  0  0  0  0  0  0  0  0  0  0
    1.9250   -0.4612    0.3016 P   0  0  0  0  0  0  0  0  0  0  0  0
    1.5189    1.3555    0.9266 S   0  0  0  0  0  0  0  0  0  0  0  0
    2.7162   -1.3440    1.3510 O   0  0  0  0  0  0  0  0  0  0  0  0
    3.6705   -0.7780    2.2724 C   0  0  0  0  0  0  0  0  0  0  0  0
    4.9353   -0.3391    1.5657 C   0  0  0  0  0  0  0  0  0  0  0  0
    0.4181   -1.8853   -0.1410 S   0  0  0  0  0  0  0  0  0  0  0  0
   -0.5355   -1.8337    1.3989 C   0  0  0  0  0  0  0  0  0  0  0  0
   -1.3963   -0.2556    1.7109 S   0  0  0  0  0  0  0  0  0  0  0  0
   -2.0882    0.2070   -0.2316 P   0  0  0  0  0  0  0  0  0  0  0  0
   -0.9202    0.8729   -1.6703 S   0  0  0  0  0  0  0  0  0  0  0  0
   -3.2850    1.2057    0.0797 O   0  0  0  0  0  0  0  0  0  0  0  0
   -3.1049    2.6300    0.1392 C   0  0  0  0  0  0  0  0  0  0  0  0
   -2.2535    3.0423    1.3227 C   0  0  0  0  0  0  0  0  0  0  0  0
   -2.8296   -1.1559   -0.5356 O   0  0  0  0  0  0  0  0  0  0  0  0
   -3.1836   -1.5644   -1.8734 C   0  0  0  0  0  0  0  0  0  0  0  0
   -4.3088   -0.7208   -2.4341 C   0  0  0  0  0  0  0  0  0  0  0  0
    4.7504    1.0193   -1.9182 H   0  0  0  0  0  0  0  0  0  0  0  0
    3.7148    2.0308   -2.9418 H   0  0  0  0  0  0  0  0  0  0  0  0
    3.5244    2.0702   -1.1852 H   0  0  0  0  0  0  0  0  0  0  0  0
    2.9290   -0.3277   -2.9993 H   0  0  0  0  0  0  0  0  0  0  0  0
    1.7191    0.7202   -2.2156 H   0  0  0  0  0  0  0  0  0  0  0  0
    3.1996    0.0685    2.7830 H   0  0  0  0  0  0  0  0  0  0  0  0
    3.8604   -1.5849    2.9814 H   0  0  0  0  0  0  0  0  0  0  0  0
    5.6660   -0.0163    2.3007 H   0  0  0  0  0  0  0  0  0  0  0  0
    5.3434   -1.1604    0.9827 H   0  0  0  0  0  0  0  0  0  0  0  0
    4.7133    0.4914    0.8974 H   0  0  0  0  0  0  0  0  0  0  0  0
    0.1238   -1.9939    2.2497 H   0  0  0  0  0  0  0  0  0  0  0  0
   -1.2730   -2.6289    1.3172 H   0  0  0  0  0  0  0  0  0  0  0  0
   -2.6450    2.9619   -0.7978 H   0  0  0  0  0  0  0  0  0  0  0  0
   -4.1204    3.0205    0.2154 H   0  0  0  0  0  0  0  0  0  0  0  0
   -2.2225    4.1251    1.3883 H   0  0  0  0  0  0  0  0  0  0  0  0
   -2.6616    2.6337    2.2439 H   0  0  0  0  0  0  0  0  0  0  0  0
   -1.2344    2.6720    1.1999 H   0  0  0  0  0  0  0  0  0  0  0  0
   -2.2917   -1.4942   -2.5045 H   0  0  0  0  0  0  0  0  0  0  0  0
   -3.4757   -2.6088   -1.7586 H   0  0  0  0  0  0  0  0  0  0  0  0
   -4.6136   -1.1194   -3.3966 H   0  0  0  0  0  0  0  0  0  0  0  0
   -5.1558   -0.7247   -1.7532 H   0  0  0  0  0  0  0  0  0  0  0  0
   -3.9695    0.3058   -2.5670 H   0  0  0  0  0  0  0  0  0  0  0  0
  1  2  1  0  0  0  0
  2  3  1  0  0  0  0
  3  4  2  0  0  0  0
  4  5  2  0  0  0  0
  4  6  2  0  0  0  0
  6  7  1  0  0  0  0
  7  8  1  0  0  0  0
  4  9  1  0  0  0  0
  9 10  1  0  0  0  0
 10 11  1  0  0  0  0
 11 12  1  0  0  0  0
 12 13  2  0  0  0  0
 12 14  2  0  0  0  0
 14 15  1  0  0  0  0
 15 16  1  0  0  0  0
 12 17  2  0  0  0  0
 17 18  1  0  0  0  0
 18 19  1  0  0  0  0
  1 20  1  0  0  0  0
  1 21  1  0  0  0  0
  1 22  1  0  0  0  0
  2 23  1  0  0  0  0
  2 24  1  0  0  0  0
  7 25  1  0  0  0  0
  7 26  1  0  0  0  0
  8 27  1  0  0  0  0
  8 28  1  0  0  0  0
  8 29  1  0  0  0  0
 10 30  1  0  0  0  0
 10 31  1  0  0  0  0
 15 32  1  0  0  0  0
 15 33  1  0  0  0  0
 16 34  1  0  0  0  0
 16 35  1  0  0  0  0
 16 36  1  0  0  0  0
 18 37  1  0  0  0  0
 18 38  1  0  0  0  0
 19 39  1  0  0  0  0
 19 40  1  0  0  0  0
 19 41  1  0  0  0  0
M  END
