 xtb: 6.7.1 (edcfbbe)
          04092507313D

 38 37  0     0  0            999 V2000
    3.8617   -3.5660    0.2318 C   0  0  0  0  0  0  0  0  0  0  0  0
    4.0072   -2.8604   -1.1068 C   0  0  0  0  0  0  0  0  0  0  0  0
    2.7247   -2.4106   -1.5911 O   0  0  0  0  0  0  0  0  0  0  0  0
    2.2793   -1.2387   -1.1969 C   0  0  0  0  0  0  0  0  0  0  0  0
    2.8880   -0.4725   -0.4768 O   0  0  0  0  0  0  0  0  0  0  0  0
    0.8960   -0.9519   -1.7379 C   0  0  0  0  0  0  0  0  0  0  0  0
    0.5032    0.4820   -1.4046 C   0  0  0  0  0  0  0  0  0  0  0  0
    0.9728    1.2106   -2.0658 H   0  0  0  0  0  0  0  0  0  0  0  0
    0.8404    0.8149    0.0338 C   0  0  0  0  0  0  0  0  0  0  0  0
    0.4681    0.1100    0.9549 O   0  0  0  0  0  0  0  0  0  0  0  0
    1.4507    1.9593    0.1581 O   0  0  0  0  0  0  0  0  0  0  0  0
    1.7823    2.4074    1.4896 C   0  0  0  0  0  0  0  0  0  0  0  0
    2.1896    3.8642    1.4048 C   0  0  0  0  0  0  0  0  0  0  0  0
   -1.2974    0.7279   -1.5756 S   0  0  0  0  0  0  0  0  0  0  0  0
   -2.1110    0.1084    0.2831 P   0  0  0  0  0  0  0  0  0  0  0  0
   -2.0481    1.2553    1.8812 S   0  0  0  0  0  0  0  0  0  0  0  0
   -3.6311   -0.0775   -0.1924 O   0  0  0  0  0  0  0  0  0  0  0  0
   -4.5204    1.0292   -0.3642 C   0  0  0  0  0  0  0  0  0  0  0  0
   -1.7283   -1.4312    0.3902 O   0  0  0  0  0  0  0  0  0  0  0  0
   -1.5497   -2.0812    1.6571 C   0  0  0  0  0  0  0  0  0  0  0  0
    3.1695   -4.3987    0.1437 H   0  0  0  0  0  0  0  0  0  0  0  0
    4.8305   -3.9371    0.5495 H   0  0  0  0  0  0  0  0  0  0  0  0
    3.4868   -2.8721    0.9816 H   0  0  0  0  0  0  0  0  0  0  0  0
    4.3648   -3.5404   -1.8797 H   0  0  0  0  0  0  0  0  0  0  0  0
    4.6699   -1.9950   -1.0197 H   0  0  0  0  0  0  0  0  0  0  0  0
    0.2084   -1.6530   -1.2563 H   0  0  0  0  0  0  0  0  0  0  0  0
    0.8625   -1.1326   -2.8115 H   0  0  0  0  0  0  0  0  0  0  0  0
    0.9066    2.2606    2.1307 H   0  0  0  0  0  0  0  0  0  0  0  0
    2.5964    1.7744    1.8551 H   0  0  0  0  0  0  0  0  0  0  0  0
    2.4636    4.2145    2.3942 H   0  0  0  0  0  0  0  0  0  0  0  0
    3.0371    3.9726    0.7349 H   0  0  0  0  0  0  0  0  0  0  0  0
    1.3629    4.4607    1.0305 H   0  0  0  0  0  0  0  0  0  0  0  0
   -4.4030    1.7351    0.4606 H   0  0  0  0  0  0  0  0  0  0  0  0
   -5.5216    0.6057   -0.3618 H   0  0  0  0  0  0  0  0  0  0  0  0
   -4.3146    1.5252   -1.3121 H   0  0  0  0  0  0  0  0  0  0  0  0
   -2.4581   -2.0094    2.2536 H   0  0  0  0  0  0  0  0  0  0  0  0
   -0.7177   -1.6186    2.1893 H   0  0  0  0  0  0  0  0  0  0  0  0
   -1.3271   -3.1177    1.4174 H   0  0  0  0  0  0  0  0  0  0  0  0
  1  2  1  0  0  0  0
  2  3  1  0  0  0  0
  3  4  4  0  0  0  0
  4  5  2  0  0  0  0
  4  6  1  0  0  0  0
  6  7  1  0  0  0  0
  7  8  1  0  0  0  0
  7  9  1  0  0  0  0
  9 10  2  0  0  0  0
  9 11  4  0  0  0  0
 11 12  1  0  0  0  0
 12 13  1  0  0  0  0
  7 14  1  0  0  0  0
 14 15  1  0  0  0  0
 15 16  2  0  0  0  0
 15 17  1  0  0  0  0
 17 18  1  0  0  0  0
 15 19  1  0  0  0  0
 19 20  1  0  0  0  0
  1 21  1  0  0  0  0
  1 22  1  0  0  0  0
  1 23  1  0  0  0  0
  2 24  1  0  0  0  0
  2 25  1  0  0  0  0
  6 26  1  0  0  0  0
  6 27  1  0  0  0  0
 12 28  1  0  0  0  0
 12 29  1  0  0  0  0
 13 30  1  0  0  0  0
 13 31  1  0  0  0  0
 13 32  1  0  0  0  0
 18 33  1  0  0  0  0
 18 34  1  0  0  0  0
 18 35  1  0  0  0  0
 20 36  1  0  0  0  0
 20 37  1  0  0  0  0
 20 38  1  0  0  0  0
M  END
