 xtb: 6.7.1 (edcfbbe)
          04092505203D

 41 40  0     0  0            999 V2000
    4.5294   -1.5321   -1.0524 C   0  0  0  0  0  0  0  0  0  0  0  0
    4.6583   -0.0470   -0.7829 C   0  0  0  0  0  0  0  0  0  0  0  0
    3.5831    0.4641    0.0257 O   0  0  0  0  0  0  0  0  0  0  0  0
    2.0718    0.5180   -0.4786 P   0  0  0  0  0  0  0  0  0  0  0  0
    1.8520    0.9687   -2.3672 S   0  0  0  0  0  0  0  0  0  0  0  0
    1.4708    1.5831    0.5176 O   0  0  0  0  0  0  0  0  0  0  0  0
    1.7264    1.5307    1.9445 C   0  0  0  0  0  0  0  0  0  0  0  0
    0.7962    2.5182    2.6156 C   0  0  0  0  0  0  0  0  0  0  0  0
    1.3151   -1.3762    0.1376 S   0  0  0  0  0  0  0  0  0  0  0  0
    0.1203   -1.7041   -1.1974 C   0  0  0  0  0  0  0  0  0  0  0  0
   -1.5589   -1.9839   -0.5958 S   0  0  0  0  0  0  0  0  0  0  0  0
   -1.9261   -0.0316    0.1687 P   0  0  0  0  0  0  0  0  0  0  0  0
   -1.4263    1.4732   -0.9792 S   0  0  0  0  0  0  0  0  0  0  0  0
   -1.1832    0.0057    1.5603 O   0  0  0  0  0  0  0  0  0  0  0  0
   -1.4283   -0.9596    2.6172 C   0  0  0  0  0  0  0  0  0  0  0  0
   -2.3546   -0.3775    3.6641 C   0  0  0  0  0  0  0  0  0  0  0  0
   -3.4547   -0.0897    0.5997 O   0  0  0  0  0  0  0  0  0  0  0  0
   -4.5307    0.2166   -0.3042 C   0  0  0  0  0  0  0  0  0  0  0  0
   -4.6381   -0.7856   -1.4349 C   0  0  0  0  0  0  0  0  0  0  0  0
    5.4317   -1.8833   -1.5425 H   0  0  0  0  0  0  0  0  0  0  0  0
    4.3864   -2.0765   -0.1225 H   0  0  0  0  0  0  0  0  0  0  0  0
    3.6794   -1.7176   -1.7072 H   0  0  0  0  0  0  0  0  0  0  0  0
    4.6761    0.5132   -1.7227 H   0  0  0  0  0  0  0  0  0  0  0  0
    5.5498    0.1806   -0.1967 H   0  0  0  0  0  0  0  0  0  0  0  0
    1.5449    0.5077    2.2875 H   0  0  0  0  0  0  0  0  0  0  0  0
    2.7754    1.7858    2.1074 H   0  0  0  0  0  0  0  0  0  0  0  0
    0.9826    3.5199    2.2388 H   0  0  0  0  0  0  0  0  0  0  0  0
   -0.2365    2.2557    2.4008 H   0  0  0  0  0  0  0  0  0  0  0  0
    0.9641    2.4954    3.6875 H   0  0  0  0  0  0  0  0  0  0  0  0
    0.4149   -2.6232   -1.6974 H   0  0  0  0  0  0  0  0  0  0  0  0
    0.1357   -0.8568   -1.8892 H   0  0  0  0  0  0  0  0  0  0  0  0
   -1.8479   -1.8682    2.1772 H   0  0  0  0  0  0  0  0  0  0  0  0
   -0.4409   -1.1766    3.0298 H   0  0  0  0  0  0  0  0  0  0  0  0
   -1.9370    0.5408    4.0674 H   0  0  0  0  0  0  0  0  0  0  0  0
   -3.3254   -0.1600    3.2271 H   0  0  0  0  0  0  0  0  0  0  0  0
   -2.4762   -1.0982    4.4666 H   0  0  0  0  0  0  0  0  0  0  0  0
   -5.4164    0.2011    0.3326 H   0  0  0  0  0  0  0  0  0  0  0  0
   -4.3719    1.2252   -0.6981 H   0  0  0  0  0  0  0  0  0  0  0  0
   -4.6692   -1.7990   -1.0425 H   0  0  0  0  0  0  0  0  0  0  0  0
   -5.5424   -0.5893   -2.0020 H   0  0  0  0  0  0  0  0  0  0  0  0
   -3.7803   -0.6913   -2.0991 H   0  0  0  0  0  0  0  0  0  0  0  0
  1  2  1  0  0  0  0
  2  3  1  0  0  0  0
  3  4  2  0  0  0  0
  4  5  2  0  0  0  0
  4  6  2  0  0  0  0
  6  7  1  0  0  0  0
  7  8  1  0  0  0  0
  4  9  1  0  0  0  0
  9 10  1  0  0  0  0
 10 11  1  0  0  0  0
 11 12  1  0  0  0  0
 12 13  2  0  0  0  0
 12 14  2  0  0  0  0
 14 15  1  0  0  0  0
 15 16  1  0  0  0  0
 12 17  2  0  0  0  0
 17 18  1  0  0  0  0
 18 19  1  0  0  0  0
  1 20  1  0  0  0  0
  1 21  1  0  0  0  0
  1 22  1  0  0  0  0
  2 23  1  0  0  0  0
  2 24  1  0  0  0  0
  7 25  1  0  0  0  0
  7 26  1  0  0  0  0
  8 27  1  0  0  0  0
  8 28  1  0  0  0  0
  8 29  1  0  0  0  0
 10 30  1  0  0  0  0
 10 31  1  0  0  0  0
 15 32  1  0  0  0  0
 15 33  1  0  0  0  0
 16 34  1  0  0  0  0
 16 35  1  0  0  0  0
 16 36  1  0  0  0  0
 18 37  1  0  0  0  0
 18 38  1  0  0  0  0
 19 39  1  0  0  0  0
 19 40  1  0  0  0  0
 19 41  1  0  0  0  0
M  END
