 xtb: 6.7.1 (edcfbbe)
          04092505213D

 41 40  0     0  0            999 V2000
    3.8442    1.6530   -1.1786 C   0  0  0  0  0  0  0  0  0  0  0  0
    4.0984    1.0390    0.1833 C   0  0  0  0  0  0  0  0  0  0  0  0
    3.3233   -0.1499    0.3808 O   0  0  0  0  0  0  0  0  0  0  0  0
    1.7267   -0.1172    0.4635 P   0  0  0  0  0  0  0  0  0  0  0  0
    1.1247    1.4084    1.5528 S   0  0  0  0  0  0  0  0  0  0  0  0
    1.4051   -1.5588    1.0418 O   0  0  0  0  0  0  0  0  0  0  0  0
    1.4270   -1.8187    2.4597 C   0  0  0  0  0  0  0  0  0  0  0  0
    2.8340   -2.0775    2.9571 C   0  0  0  0  0  0  0  0  0  0  0  0
    1.2519   -0.4676   -1.5810 S   0  0  0  0  0  0  0  0  0  0  0  0
   -0.0359   -1.7451   -1.5701 C   0  0  0  0  0  0  0  0  0  0  0  0
   -1.7199   -1.1745   -1.9882 S   0  0  0  0  0  0  0  0  0  0  0  0
   -2.0127    0.2244   -0.4259 P   0  0  0  0  0  0  0  0  0  0  0  0
   -3.8603    0.8179   -0.1934 S   0  0  0  0  0  0  0  0  0  0  0  0
   -0.9287    1.3486   -0.7126 O   0  0  0  0  0  0  0  0  0  0  0  0
   -1.1102    2.2600   -1.8164 C   0  0  0  0  0  0  0  0  0  0  0  0
   -1.6044    3.6005   -1.3125 C   0  0  0  0  0  0  0  0  0  0  0  0
   -1.3113   -0.4176    0.8487 O   0  0  0  0  0  0  0  0  0  0  0  0
   -2.1068   -1.0987    1.8397 C   0  0  0  0  0  0  0  0  0  0  0  0
   -2.4299   -2.5180    1.4168 C   0  0  0  0  0  0  0  0  0  0  0  0
    4.0286    0.9252   -1.9647 H   0  0  0  0  0  0  0  0  0  0  0  0
    2.8046    1.9783   -1.2406 H   0  0  0  0  0  0  0  0  0  0  0  0
    4.4912    2.5130   -1.3185 H   0  0  0  0  0  0  0  0  0  0  0  0
    3.8491    1.7511    0.9775 H   0  0  0  0  0  0  0  0  0  0  0  0
    5.1312    0.7058    0.2914 H   0  0  0  0  0  0  0  0  0  0  0  0
    0.9836   -0.9612    2.9779 H   0  0  0  0  0  0  0  0  0  0  0  0
    0.7931   -2.6987    2.5849 H   0  0  0  0  0  0  0  0  0  0  0  0
    2.7923   -2.3804    3.9988 H   0  0  0  0  0  0  0  0  0  0  0  0
    3.2993   -2.8638    2.3692 H   0  0  0  0  0  0  0  0  0  0  0  0
    3.4342   -1.1743    2.8732 H   0  0  0  0  0  0  0  0  0  0  0  0
   -0.0417   -2.2341   -0.6012 H   0  0  0  0  0  0  0  0  0  0  0  0
    0.2207   -2.4429   -2.3635 H   0  0  0  0  0  0  0  0  0  0  0  0
   -0.1251    2.3432   -2.2821 H   0  0  0  0  0  0  0  0  0  0  0  0
   -1.8144    1.8243   -2.5344 H   0  0  0  0  0  0  0  0  0  0  0  0
   -1.6579    4.2988   -2.1413 H   0  0  0  0  0  0  0  0  0  0  0  0
   -2.5926    3.4922   -0.8699 H   0  0  0  0  0  0  0  0  0  0  0  0
   -0.9242    3.9832   -0.5559 H   0  0  0  0  0  0  0  0  0  0  0  0
   -1.4988   -1.0679    2.7450 H   0  0  0  0  0  0  0  0  0  0  0  0
   -3.0260   -0.5252    1.9991 H   0  0  0  0  0  0  0  0  0  0  0  0
   -2.9898   -3.0047    2.2090 H   0  0  0  0  0  0  0  0  0  0  0  0
   -3.0372   -2.5060    0.5122 H   0  0  0  0  0  0  0  0  0  0  0  0
   -1.5195   -3.0812    1.2262 H   0  0  0  0  0  0  0  0  0  0  0  0
  1  2  1  0  0  0  0
  2  3  1  0  0  0  0
  3  4  1  0  0  0  0
  4  5  2  0  0  0  0
  4  6  2  0  0  0  0
  6  7  1  0  0  0  0
  7  8  1  0  0  0  0
  4  9  1  0  0  0  0
  9 10  1  0  0  0  0
 10 11  1  0  0  0  0
 11 12  1  0  0  0  0
 12 13  2  0  0  0  0
 12 14  2  0  0  0  0
 14 15  1  0  0  0  0
 15 16  1  0  0  0  0
 12 17  2  0  0  0  0
 17 18  1  0  0  0  0
 18 19  1  0  0  0  0
  1 20  1  0  0  0  0
  1 21  1  0  0  0  0
  1 22  1  0  0  0  0
  2 23  1  0  0  0  0
  2 24  1  0  0  0  0
  7 25  1  0  0  0  0
  7 26  1  0  0  0  0
  8 27  1  0  0  0  0
  8 28  1  0  0  0  0
  8 29  1  0  0  0  0
 10 30  1  0  0  0  0
 10 31  1  0  0  0  0
 15 32  1  0  0  0  0
 15 33  1  0  0  0  0
 16 34  1  0  0  0  0
 16 35  1  0  0  0  0
 16 36  1  0  0  0  0
 18 37  1  0  0  0  0
 18 38  1  0  0  0  0
 19 39  1  0  0  0  0
 19 40  1  0  0  0  0
 19 41  1  0  0  0  0
M  END
