 xtb: 6.7.1 (edcfbbe)
          04092505203D

 41 40  0     0  0            999 V2000
    3.9491   -1.1390   -2.8827 C   0  0  0  0  0  0  0  0  0  0  0  0
    4.4491   -0.7541   -1.5067 C   0  0  0  0  0  0  0  0  0  0  0  0
    3.6189    0.2356   -0.8665 O   0  0  0  0  0  0  0  0  0  0  0  0
    2.0579    0.0986   -0.6107 P   0  0  0  0  0  0  0  0  0  0  0  0
    0.8485    0.4233   -2.1150 S   0  0  0  0  0  0  0  0  0  0  0  0
    1.8305    1.1859    0.5054 O   0  0  0  0  0  0  0  0  0  0  0  0
    2.6022    1.3049    1.7273 C   0  0  0  0  0  0  0  0  0  0  0  0
    1.8315    0.7411    2.9045 C   0  0  0  0  0  0  0  0  0  0  0  0
    1.8790   -1.8296    0.2599 S   0  0  0  0  0  0  0  0  0  0  0  0
    0.0921   -2.0041    0.0665 C   0  0  0  0  0  0  0  0  0  0  0  0
   -0.8675   -1.1700    1.3764 S   0  0  0  0  0  0  0  0  0  0  0  0
   -1.8806    0.4213    0.4281 P   0  0  0  0  0  0  0  0  0  0  0  0
   -1.1583    2.2331    0.2997 S   0  0  0  0  0  0  0  0  0  0  0  0
   -3.2060    0.5103    1.2993 O   0  0  0  0  0  0  0  0  0  0  0  0
   -4.0769   -0.6164    1.5610 C   0  0  0  0  0  0  0  0  0  0  0  0
   -3.9684   -1.0377    3.0130 C   0  0  0  0  0  0  0  0  0  0  0  0
   -2.2575   -0.3186   -0.9408 O   0  0  0  0  0  0  0  0  0  0  0  0
   -2.6517    0.4174   -2.1113 C   0  0  0  0  0  0  0  0  0  0  0  0
   -4.0328    1.0172   -1.9503 C   0  0  0  0  0  0  0  0  0  0  0  0
    2.9801   -1.6300   -2.8081 H   0  0  0  0  0  0  0  0  0  0  0  0
    3.8371   -0.2553   -3.5067 H   0  0  0  0  0  0  0  0  0  0  0  0
    4.6573   -1.8189   -3.3450 H   0  0  0  0  0  0  0  0  0  0  0  0
    5.4261   -0.2702   -1.5576 H   0  0  0  0  0  0  0  0  0  0  0  0
    4.4995   -1.6295   -0.8537 H   0  0  0  0  0  0  0  0  0  0  0  0
    3.5619    0.8017    1.5942 H   0  0  0  0  0  0  0  0  0  0  0  0
    2.7596    2.3790    1.8382 H   0  0  0  0  0  0  0  0  0  0  0  0
    0.8435    1.1954    2.9490 H   0  0  0  0  0  0  0  0  0  0  0  0
    1.7171   -0.3372    2.8191 H   0  0  0  0  0  0  0  0  0  0  0  0
    2.3685    0.9696    3.8195 H   0  0  0  0  0  0  0  0  0  0  0  0
   -0.1240   -3.0654    0.1515 H   0  0  0  0  0  0  0  0  0  0  0  0
   -0.2033   -1.6059   -0.9054 H   0  0  0  0  0  0  0  0  0  0  0  0
   -5.0806   -0.2540    1.3308 H   0  0  0  0  0  0  0  0  0  0  0  0
   -3.8181   -1.4364    0.8863 H   0  0  0  0  0  0  0  0  0  0  0  0
   -4.1834   -0.1916    3.6596 H   0  0  0  0  0  0  0  0  0  0  0  0
   -4.6844   -1.8299    3.2073 H   0  0  0  0  0  0  0  0  0  0  0  0
   -2.9658   -1.3986    3.2303 H   0  0  0  0  0  0  0  0  0  0  0  0
   -1.9055    1.1955   -2.3021 H   0  0  0  0  0  0  0  0  0  0  0  0
   -2.6133   -0.3207   -2.9138 H   0  0  0  0  0  0  0  0  0  0  0  0
   -4.7607    0.2391   -1.7352 H   0  0  0  0  0  0  0  0  0  0  0  0
   -4.0261    1.7382   -1.1329 H   0  0  0  0  0  0  0  0  0  0  0  0
   -4.3097    1.5274   -2.8674 H   0  0  0  0  0  0  0  0  0  0  0  0
  1  2  1  0  0  0  0
  2  3  1  0  0  0  0
  3  4  2  0  0  0  0
  4  5  2  0  0  0  0
  4  6  2  0  0  0  0
  6  7  1  0  0  0  0
  7  8  1  0  0  0  0
  4  9  1  0  0  0  0
  9 10  1  0  0  0  0
 10 11  1  0  0  0  0
 11 12  1  0  0  0  0
 12 13  2  0  0  0  0
 12 14  2  0  0  0  0
 14 15  1  0  0  0  0
 15 16  1  0  0  0  0
 12 17  1  0  0  0  0
 17 18  1  0  0  0  0
 18 19  1  0  0  0  0
  1 20  1  0  0  0  0
  1 21  1  0  0  0  0
  1 22  1  0  0  0  0
  2 23  1  0  0  0  0
  2 24  1  0  0  0  0
  7 25  1  0  0  0  0
  7 26  1  0  0  0  0
  8 27  1  0  0  0  0
  8 28  1  0  0  0  0
  8 29  1  0  0  0  0
 10 30  1  0  0  0  0
 10 31  1  0  0  0  0
 15 32  1  0  0  0  0
 15 33  1  0  0  0  0
 16 34  1  0  0  0  0
 16 35  1  0  0  0  0
 16 36  1  0  0  0  0
 18 37  1  0  0  0  0
 18 38  1  0  0  0  0
 19 39  1  0  0  0  0
 19 40  1  0  0  0  0
 19 41  1  0  0  0  0
M  END
