 xtb: 6.7.1 (edcfbbe)
          04092505213D

 41 40  0     0  0            999 V2000
    4.4440    1.3445    0.6576 C   0  0  0  0  0  0  0  0  0  0  0  0
    3.3461    1.2969   -0.3852 C   0  0  0  0  0  0  0  0  0  0  0  0
    2.6788    0.0198   -0.3772 O   0  0  0  0  0  0  0  0  0  0  0  0
    1.6224   -0.3678    0.7587 P   0  0  0  0  0  0  0  0  0  0  0  0
    0.8156    1.1236    1.7230 S   0  0  0  0  0  0  0  0  0  0  0  0
    2.3546   -1.3129    1.7996 O   0  0  0  0  0  0  0  0  0  0  0  0
    3.1861   -2.4333    1.4063 C   0  0  0  0  0  0  0  0  0  0  0  0
    4.3422   -2.5275    2.3815 C   0  0  0  0  0  0  0  0  0  0  0  0
    0.4704   -1.7672   -0.3567 S   0  0  0  0  0  0  0  0  0  0  0  0
    0.2931   -0.8557   -1.9175 C   0  0  0  0  0  0  0  0  0  0  0  0
   -0.2670    0.8516   -1.7057 S   0  0  0  0  0  0  0  0  0  0  0  0
   -2.2257    0.3880   -1.0960 P   0  0  0  0  0  0  0  0  0  0  0  0
   -3.1389   -1.0728   -2.0159 S   0  0  0  0  0  0  0  0  0  0  0  0
   -3.0244    1.7441   -1.2833 O   0  0  0  0  0  0  0  0  0  0  0  0
   -2.5082    3.0755   -1.0456 C   0  0  0  0  0  0  0  0  0  0  0  0
   -2.2395    3.3440    0.4205 C   0  0  0  0  0  0  0  0  0  0  0  0
   -2.0101    0.1435    0.4675 O   0  0  0  0  0  0  0  0  0  0  0  0
   -2.9280   -0.5967    1.2950 C   0  0  0  0  0  0  0  0  0  0  0  0
   -2.1368   -1.4511    2.2651 C   0  0  0  0  0  0  0  0  0  0  0  0
    5.1666    0.5510    0.4844 H   0  0  0  0  0  0  0  0  0  0  0  0
    4.9469    2.3050    0.6079 H   0  0  0  0  0  0  0  0  0  0  0  0
    4.0106    1.2232    1.6501 H   0  0  0  0  0  0  0  0  0  0  0  0
    3.7395    1.3879   -1.3983 H   0  0  0  0  0  0  0  0  0  0  0  0
    2.6040    2.0802   -0.2032 H   0  0  0  0  0  0  0  0  0  0  0  0
    2.5605   -3.3278    1.4402 H   0  0  0  0  0  0  0  0  0  0  0  0
    3.5371   -2.2751    0.3836 H   0  0  0  0  0  0  0  0  0  0  0  0
    3.9641   -2.6364    3.3938 H   0  0  0  0  0  0  0  0  0  0  0  0
    4.9505   -3.3904    2.1299 H   0  0  0  0  0  0  0  0  0  0  0  0
    4.9531   -1.6302    2.3333 H   0  0  0  0  0  0  0  0  0  0  0  0
   -0.4413   -1.4083   -2.5055 H   0  0  0  0  0  0  0  0  0  0  0  0
    1.2539   -0.8078   -2.4232 H   0  0  0  0  0  0  0  0  0  0  0  0
   -1.5992    3.2037   -1.6395 H   0  0  0  0  0  0  0  0  0  0  0  0
   -3.2978    3.7209   -1.4343 H   0  0  0  0  0  0  0  0  0  0  0  0
   -1.9461    4.3820    0.5413 H   0  0  0  0  0  0  0  0  0  0  0  0
   -3.1344    3.1564    1.0086 H   0  0  0  0  0  0  0  0  0  0  0  0
   -1.4356    2.7103    0.7918 H   0  0  0  0  0  0  0  0  0  0  0  0
   -3.5426    0.1348    1.8251 H   0  0  0  0  0  0  0  0  0  0  0  0
   -3.5669   -1.2121    0.6517 H   0  0  0  0  0  0  0  0  0  0  0  0
   -1.5833   -2.2191    1.7297 H   0  0  0  0  0  0  0  0  0  0  0  0
   -1.4330   -0.8288    2.8133 H   0  0  0  0  0  0  0  0  0  0  0  0
   -2.8205   -1.9227    2.9632 H   0  0  0  0  0  0  0  0  0  0  0  0
  1  2  1  0  0  0  0
  2  3  1  0  0  0  0
  3  4  1  0  0  0  0
  4  5  2  0  0  0  0
  4  6  2  0  0  0  0
  6  7  1  0  0  0  0
  7  8  1  0  0  0  0
  4  9  1  0  0  0  0
  9 10  1  0  0  0  0
 10 11  1  0  0  0  0
 11 12  1  0  0  0  0
 12 13  2  0  0  0  0
 12 14  2  0  0  0  0
 14 15  1  0  0  0  0
 15 16  1  0  0  0  0
 12 17  1  0  0  0  0
 17 18  1  0  0  0  0
 18 19  1  0  0  0  0
  1 20  1  0  0  0  0
  1 21  1  0  0  0  0
  1 22  1  0  0  0  0
  2 23  1  0  0  0  0
  2 24  1  0  0  0  0
  7 25  1  0  0  0  0
  7 26  1  0  0  0  0
  8 27  1  0  0  0  0
  8 28  1  0  0  0  0
  8 29  1  0  0  0  0
 10 30  1  0  0  0  0
 10 31  1  0  0  0  0
 15 32  1  0  0  0  0
 15 33  1  0  0  0  0
 16 34  1  0  0  0  0
 16 35  1  0  0  0  0
 16 36  1  0  0  0  0
 18 37  1  0  0  0  0
 18 38  1  0  0  0  0
 19 39  1  0  0  0  0
 19 40  1  0  0  0  0
 19 41  1  0  0  0  0
M  END
