 xtb: 6.7.1 (edcfbbe)
          04092507313D

 38 37  0     0  0            999 V2000
    5.0264   -2.6311   -0.7740 C   0  0  0  0  0  0  0  0  0  0  0  0
    3.6453   -3.1029   -1.1997 C   0  0  0  0  0  0  0  0  0  0  0  0
    2.9109   -2.0347   -1.8308 O   0  0  0  0  0  0  0  0  0  0  0  0
    2.2112   -1.2181   -1.0790 C   0  0  0  0  0  0  0  0  0  0  0  0
    2.0990   -1.3073    0.1283 O   0  0  0  0  0  0  0  0  0  0  0  0
    1.5472   -0.1253   -1.8898 C   0  0  0  0  0  0  0  0  0  0  0  0
    0.3959    0.4640   -1.0890 C   0  0  0  0  0  0  0  0  0  0  0  0
    0.0180    1.3805   -1.5515 H   0  0  0  0  0  0  0  0  0  0  0  0
    0.8121    0.7944    0.3329 C   0  0  0  0  0  0  0  0  0  0  0  0
    0.1294    0.4963    1.2945 O   0  0  0  0  0  0  0  0  0  0  0  0
    1.9076    1.5045    0.3719 O   0  0  0  0  0  0  0  0  0  0  0  0
    2.3576    1.9828    1.6571 C   0  0  0  0  0  0  0  0  0  0  0  0
    1.6554    3.2806    2.0214 C   0  0  0  0  0  0  0  0  0  0  0  0
   -0.9890   -0.7217   -0.9883 S   0  0  0  0  0  0  0  0  0  0  0  0
   -2.2413    0.3243    0.3700 P   0  0  0  0  0  0  0  0  0  0  0  0
   -2.1453    2.2792    0.3812 S   0  0  0  0  0  0  0  0  0  0  0  0
   -3.6718   -0.1878   -0.1758 O   0  0  0  0  0  0  0  0  0  0  0  0
   -4.1880    0.2396   -1.4380 C   0  0  0  0  0  0  0  0  0  0  0  0
   -2.3123   -0.3595    1.7947 O   0  0  0  0  0  0  0  0  0  0  0  0
   -2.1638   -1.7772    1.9826 C   0  0  0  0  0  0  0  0  0  0  0  0
    4.9405   -1.8623   -0.0093 H   0  0  0  0  0  0  0  0  0  0  0  0
    5.5824   -3.4696   -0.3679 H   0  0  0  0  0  0  0  0  0  0  0  0
    5.5623   -2.2250   -1.6273 H   0  0  0  0  0  0  0  0  0  0  0  0
    3.0731   -3.4596   -0.3389 H   0  0  0  0  0  0  0  0  0  0  0  0
    3.7072   -3.8777   -1.9636 H   0  0  0  0  0  0  0  0  0  0  0  0
    1.2022   -0.5293   -2.8406 H   0  0  0  0  0  0  0  0  0  0  0  0
    2.2901    0.6519   -2.0821 H   0  0  0  0  0  0  0  0  0  0  0  0
    2.1627    1.2066    2.4020 H   0  0  0  0  0  0  0  0  0  0  0  0
    3.4299    2.1294    1.5286 H   0  0  0  0  0  0  0  0  0  0  0  0
    2.0241    3.6331    2.9788 H   0  0  0  0  0  0  0  0  0  0  0  0
    1.8417    4.0349    1.2622 H   0  0  0  0  0  0  0  0  0  0  0  0
    0.5810    3.1198    2.0945 H   0  0  0  0  0  0  0  0  0  0  0  0
   -4.1080    1.3247   -1.5252 H   0  0  0  0  0  0  0  0  0  0  0  0
   -5.2310   -0.0661   -1.4470 H   0  0  0  0  0  0  0  0  0  0  0  0
   -3.6372   -0.2414   -2.2464 H   0  0  0  0  0  0  0  0  0  0  0  0
   -1.1222   -2.0558    1.8178 H   0  0  0  0  0  0  0  0  0  0  0  0
   -2.8164   -2.3208    1.3005 H   0  0  0  0  0  0  0  0  0  0  0  0
   -2.4464   -1.9570    3.0166 H   0  0  0  0  0  0  0  0  0  0  0  0
  1  2  1  0  0  0  0
  2  3  1  0  0  0  0
  3  4  4  0  0  0  0
  4  5  2  0  0  0  0
  4  6  1  0  0  0  0
  6  7  1  0  0  0  0
  7  8  1  0  0  0  0
  7  9  1  0  0  0  0
  9 10  2  0  0  0  0
  9 11  4  0  0  0  0
 11 12  1  0  0  0  0
 12 13  1  0  0  0  0
  7 14  1  0  0  0  0
 14 15  1  0  0  0  0
 15 16  2  0  0  0  0
 15 17  1  0  0  0  0
 17 18  1  0  0  0  0
 15 19  2  0  0  0  0
 19 20  1  0  0  0  0
  1 21  1  0  0  0  0
  1 22  1  0  0  0  0
  1 23  1  0  0  0  0
  2 24  1  0  0  0  0
  2 25  1  0  0  0  0
  6 26  1  0  0  0  0
  6 27  1  0  0  0  0
 12 28  1  0  0  0  0
 12 29  1  0  0  0  0
 13 30  1  0  0  0  0
 13 31  1  0  0  0  0
 13 32  1  0  0  0  0
 18 33  1  0  0  0  0
 18 34  1  0  0  0  0
 18 35  1  0  0  0  0
 20 36  1  0  0  0  0
 20 37  1  0  0  0  0
 20 38  1  0  0  0  0
M  END
