 xtb: 6.7.1 (edcfbbe)
          04092505213D

 41 40  0     0  0            999 V2000
    3.5776    2.4469   -0.4009 C   0  0  0  0  0  0  0  0  0  0  0  0
    2.1019    2.2217   -0.1515 C   0  0  0  0  0  0  0  0  0  0  0  0
    1.7173    0.8701   -0.4702 O   0  0  0  0  0  0  0  0  0  0  0  0
    2.1793   -0.3652    0.4086 P   0  0  0  0  0  0  0  0  0  0  0  0
    2.4829    0.0634    2.3013 S   0  0  0  0  0  0  0  0  0  0  0  0
    3.4221   -0.8825   -0.4336 O   0  0  0  0  0  0  0  0  0  0  0  0
    3.9583   -2.2176   -0.4107 C   0  0  0  0  0  0  0  0  0  0  0  0
    4.2442   -2.7170    0.9906 C   0  0  0  0  0  0  0  0  0  0  0  0
    0.6770   -1.7899   -0.0012 S   0  0  0  0  0  0  0  0  0  0  0  0
   -0.4607   -1.2626    1.3111 C   0  0  0  0  0  0  0  0  0  0  0  0
   -1.0668    0.4351    1.1390 S   0  0  0  0  0  0  0  0  0  0  0  0
   -2.1752    0.2027   -0.6883 P   0  0  0  0  0  0  0  0  0  0  0  0
   -1.2086   -0.0394   -2.3710 S   0  0  0  0  0  0  0  0  0  0  0  0
   -3.1723    1.4381   -0.6007 O   0  0  0  0  0  0  0  0  0  0  0  0
   -2.7750    2.7964   -0.3427 C   0  0  0  0  0  0  0  0  0  0  0  0
   -1.7826    3.3157   -1.3615 C   0  0  0  0  0  0  0  0  0  0  0  0
   -3.1189   -1.0342   -0.4385 O   0  0  0  0  0  0  0  0  0  0  0  0
   -4.1244   -1.0922    0.6062 C   0  0  0  0  0  0  0  0  0  0  0  0
   -5.4841   -0.7159    0.0545 C   0  0  0  0  0  0  0  0  0  0  0  0
    3.8230    3.4865   -0.2084 H   0  0  0  0  0  0  0  0  0  0  0  0
    4.1613    1.8120    0.2653 H   0  0  0  0  0  0  0  0  0  0  0  0
    3.8257    2.1964   -1.4290 H   0  0  0  0  0  0  0  0  0  0  0  0
    1.4826    2.8349   -0.8078 H   0  0  0  0  0  0  0  0  0  0  0  0
    1.8470    2.4186    0.8954 H   0  0  0  0  0  0  0  0  0  0  0  0
    3.2495   -2.8767   -0.9207 H   0  0  0  0  0  0  0  0  0  0  0  0
    4.8732   -2.1355   -1.0004 H   0  0  0  0  0  0  0  0  0  0  0  0
    4.7206   -3.6904    0.9344 H   0  0  0  0  0  0  0  0  0  0  0  0
    4.8990   -2.0247    1.5147 H   0  0  0  0  0  0  0  0  0  0  0  0
    3.3160   -2.8082    1.5536 H   0  0  0  0  0  0  0  0  0  0  0  0
    0.0598   -1.2861    2.2693 H   0  0  0  0  0  0  0  0  0  0  0  0
   -1.2911   -1.9641    1.2937 H   0  0  0  0  0  0  0  0  0  0  0  0
   -3.7134    3.3525   -0.3803 H   0  0  0  0  0  0  0  0  0  0  0  0
   -2.3548    2.8447    0.6664 H   0  0  0  0  0  0  0  0  0  0  0  0
   -0.8682    2.7249   -1.3204 H   0  0  0  0  0  0  0  0  0  0  0  0
   -2.1921    3.2367   -2.3656 H   0  0  0  0  0  0  0  0  0  0  0  0
   -1.5488    4.3530   -1.1451 H   0  0  0  0  0  0  0  0  0  0  0  0
   -4.1105   -2.1304    0.9439 H   0  0  0  0  0  0  0  0  0  0  0  0
   -3.8316   -0.4284    1.4240 H   0  0  0  0  0  0  0  0  0  0  0  0
   -5.4776    0.3132   -0.2941 H   0  0  0  0  0  0  0  0  0  0  0  0
   -5.7388   -1.3645   -0.7791 H   0  0  0  0  0  0  0  0  0  0  0  0
   -6.2284   -0.8269    0.8369 H   0  0  0  0  0  0  0  0  0  0  0  0
  1  2  1  0  0  0  0
  2  3  1  0  0  0  0
  3  4  2  0  0  0  0
  4  5  2  0  0  0  0
  4  6  2  0  0  0  0
  6  7  1  0  0  0  0
  7  8  1  0  0  0  0
  4  9  1  0  0  0  0
  9 10  1  0  0  0  0
 10 11  1  0  0  0  0
 11 12  1  0  0  0  0
 12 13  2  0  0  0  0
 12 14  2  0  0  0  0
 14 15  1  0  0  0  0
 15 16  1  0  0  0  0
 12 17  2  0  0  0  0
 17 18  1  0  0  0  0
 18 19  1  0  0  0  0
  1 20  1  0  0  0  0
  1 21  1  0  0  0  0
  1 22  1  0  0  0  0
  2 23  1  0  0  0  0
  2 24  1  0  0  0  0
  7 25  1  0  0  0  0
  7 26  1  0  0  0  0
  8 27  1  0  0  0  0
  8 28  1  0  0  0  0
  8 29  1  0  0  0  0
 10 30  1  0  0  0  0
 10 31  1  0  0  0  0
 15 32  1  0  0  0  0
 15 33  1  0  0  0  0
 16 34  1  0  0  0  0
 16 35  1  0  0  0  0
 16 36  1  0  0  0  0
 18 37  1  0  0  0  0
 18 38  1  0  0  0  0
 19 39  1  0  0  0  0
 19 40  1  0  0  0  0
 19 41  1  0  0  0  0
M  END
