 xtb: 6.7.1 (edcfbbe)
          04092505203D

 41 40  0     0  0            999 V2000
    4.4350    1.1903   -1.8326 C   0  0  0  0  0  0  0  0  0  0  0  0
    4.6268    0.3269   -0.6039 C   0  0  0  0  0  0  0  0  0  0  0  0
    3.5535    0.4594    0.3477 O   0  0  0  0  0  0  0  0  0  0  0  0
    2.0108    0.2586    0.0261 P   0  0  0  0  0  0  0  0  0  0  0  0
    1.0699    1.7294   -0.8558 S   0  0  0  0  0  0  0  0  0  0  0  0
    1.4075    0.0157    1.4612 O   0  0  0  0  0  0  0  0  0  0  0  0
    1.8983   -0.9942    2.3790 C   0  0  0  0  0  0  0  0  0  0  0  0
    2.8032   -0.3701    3.4210 C   0  0  0  0  0  0  0  0  0  0  0  0
    2.0077   -1.6188   -0.9829 S   0  0  0  0  0  0  0  0  0  0  0  0
    0.2612   -1.6747   -1.4253 C   0  0  0  0  0  0  0  0  0  0  0  0
   -0.8304   -1.8697    0.0226 S   0  0  0  0  0  0  0  0  0  0  0  0
   -1.9723   -0.1044   -0.1067 P   0  0  0  0  0  0  0  0  0  0  0  0
   -2.1723    0.5923   -1.9348 S   0  0  0  0  0  0  0  0  0  0  0  0
   -1.3222    0.7684    1.0377 O   0  0  0  0  0  0  0  0  0  0  0  0
   -1.9714    1.8693    1.7098 C   0  0  0  0  0  0  0  0  0  0  0  0
   -2.4120    2.9527    0.7488 C   0  0  0  0  0  0  0  0  0  0  0  0
   -3.3512   -0.5094    0.5753 O   0  0  0  0  0  0  0  0  0  0  0  0
   -4.4005   -1.1848   -0.1455 C   0  0  0  0  0  0  0  0  0  0  0  0
   -5.7277   -0.7988    0.4763 C   0  0  0  0  0  0  0  0  0  0  0  0
    5.3095    1.1098   -2.4702 H   0  0  0  0  0  0  0  0  0  0  0  0
    3.5582    0.8634   -2.3899 H   0  0  0  0  0  0  0  0  0  0  0  0
    4.2896    2.2298   -1.5480 H   0  0  0  0  0  0  0  0  0  0  0  0
    5.5093    0.6312   -0.0382 H   0  0  0  0  0  0  0  0  0  0  0  0
    4.7063   -0.7277   -0.8811 H   0  0  0  0  0  0  0  0  0  0  0  0
    0.9974   -1.4174    2.8283 H   0  0  0  0  0  0  0  0  0  0  0  0
    2.4215   -1.7688    1.8110 H   0  0  0  0  0  0  0  0  0  0  0  0
    3.6781    0.0659    2.9460 H   0  0  0  0  0  0  0  0  0  0  0  0
    2.2721    0.4107    3.9580 H   0  0  0  0  0  0  0  0  0  0  0  0
    3.1181   -1.1375    4.1212 H   0  0  0  0  0  0  0  0  0  0  0  0
    0.1393   -2.5486   -2.0600 H   0  0  0  0  0  0  0  0  0  0  0  0
   -0.0244   -0.7602   -1.9542 H   0  0  0  0  0  0  0  0  0  0  0  0
   -2.8184    1.4707    2.2729 H   0  0  0  0  0  0  0  0  0  0  0  0
   -1.2014    2.2327    2.3928 H   0  0  0  0  0  0  0  0  0  0  0  0
   -3.1889    2.5748    0.0850 H   0  0  0  0  0  0  0  0  0  0  0  0
   -2.7995    3.7990    1.3069 H   0  0  0  0  0  0  0  0  0  0  0  0
   -1.5693    3.2763    0.1397 H   0  0  0  0  0  0  0  0  0  0  0  0
   -4.3487   -0.8863   -1.1982 H   0  0  0  0  0  0  0  0  0  0  0  0
   -4.2196   -2.2594   -0.0661 H   0  0  0  0  0  0  0  0  0  0  0  0
   -5.7347   -1.0615    1.5303 H   0  0  0  0  0  0  0  0  0  0  0  0
   -5.8930    0.2706    0.3771 H   0  0  0  0  0  0  0  0  0  0  0  0
   -6.5247   -1.3309   -0.0324 H   0  0  0  0  0  0  0  0  0  0  0  0
  1  2  1  0  0  0  0
  2  3  1  0  0  0  0
  3  4  2  0  0  0  0
  4  5  2  0  0  0  0
  4  6  2  0  0  0  0
  6  7  1  0  0  0  0
  7  8  1  0  0  0  0
  4  9  1  0  0  0  0
  9 10  1  0  0  0  0
 10 11  1  0  0  0  0
 11 12  1  0  0  0  0
 12 13  2  0  0  0  0
 12 14  2  0  0  0  0
 14 15  1  0  0  0  0
 15 16  1  0  0  0  0
 12 17  2  0  0  0  0
 17 18  1  0  0  0  0
 18 19  1  0  0  0  0
  1 20  1  0  0  0  0
  1 21  1  0  0  0  0
  1 22  1  0  0  0  0
  2 23  1  0  0  0  0
  2 24  1  0  0  0  0
  7 25  1  0  0  0  0
  7 26  1  0  0  0  0
  8 27  1  0  0  0  0
  8 28  1  0  0  0  0
  8 29  1  0  0  0  0
 10 30  1  0  0  0  0
 10 31  1  0  0  0  0
 15 32  1  0  0  0  0
 15 33  1  0  0  0  0
 16 34  1  0  0  0  0
 16 35  1  0  0  0  0
 16 36  1  0  0  0  0
 18 37  1  0  0  0  0
 18 38  1  0  0  0  0
 19 39  1  0  0  0  0
 19 40  1  0  0  0  0
 19 41  1  0  0  0  0
M  END
