 xtb: 6.7.1 (edcfbbe)
          04092505203D

 41 40  0     0  0            999 V2000
    3.9355   -0.6008   -2.7249 C   0  0  0  0  0  0  0  0  0  0  0  0
    4.2056    0.4797   -1.6979 C   0  0  0  0  0  0  0  0  0  0  0  0
    3.7441    0.1059   -0.3887 O   0  0  0  0  0  0  0  0  0  0  0  0
    2.2042   -0.0571   -0.0389 P   0  0  0  0  0  0  0  0  0  0  0  0
    1.0616    1.3136   -0.8678 S   0  0  0  0  0  0  0  0  0  0  0  0
    2.2107   -0.1026    1.5423 O   0  0  0  0  0  0  0  0  0  0  0  0
    2.1316    1.0773    2.3669 C   0  0  0  0  0  0  0  0  0  0  0  0
    3.3255    1.9874    2.1762 C   0  0  0  0  0  0  0  0  0  0  0  0
    1.8630   -2.1031   -0.4170 S   0  0  0  0  0  0  0  0  0  0  0  0
    0.1164   -2.2380    0.0399 C   0  0  0  0  0  0  0  0  0  0  0  0
   -1.0026   -1.4760   -1.1911 S   0  0  0  0  0  0  0  0  0  0  0  0
   -2.1303   -0.2645    0.1128 P   0  0  0  0  0  0  0  0  0  0  0  0
   -1.3065    0.3290    1.7954 S   0  0  0  0  0  0  0  0  0  0  0  0
   -3.3606   -1.2435    0.3055 O   0  0  0  0  0  0  0  0  0  0  0  0
   -4.3139   -1.0980    1.3783 C   0  0  0  0  0  0  0  0  0  0  0  0
   -5.1257    0.1739    1.2530 C   0  0  0  0  0  0  0  0  0  0  0  0
   -2.7440    0.8693   -0.8060 O   0  0  0  0  0  0  0  0  0  0  0  0
   -2.2036    2.1923   -0.9718 C   0  0  0  0  0  0  0  0  0  0  0  0
   -3.3561    3.1400   -1.2346 C   0  0  0  0  0  0  0  0  0  0  0  0
    4.3334   -1.5534   -2.3841 H   0  0  0  0  0  0  0  0  0  0  0  0
    2.8621   -0.7069   -2.8799 H   0  0  0  0  0  0  0  0  0  0  0  0
    4.4019   -0.3285   -3.6663 H   0  0  0  0  0  0  0  0  0  0  0  0
    3.7128    1.4144   -1.9849 H   0  0  0  0  0  0  0  0  0  0  0  0
    5.2743    0.6488   -1.5601 H   0  0  0  0  0  0  0  0  0  0  0  0
    1.1979    1.5998    2.1356 H   0  0  0  0  0  0  0  0  0  0  0  0
    2.0779    0.6780    3.3806 H   0  0  0  0  0  0  0  0  0  0  0  0
    3.3150    2.4068    1.1707 H   0  0  0  0  0  0  0  0  0  0  0  0
    3.2762    2.7974    2.8971 H   0  0  0  0  0  0  0  0  0  0  0  0
    4.2476    1.4294    2.3165 H   0  0  0  0  0  0  0  0  0  0  0  0
   -0.0450   -1.7573    1.0077 H   0  0  0  0  0  0  0  0  0  0  0  0
   -0.0962   -3.3025    0.0831 H   0  0  0  0  0  0  0  0  0  0  0  0
   -4.9377   -1.9883    1.2905 H   0  0  0  0  0  0  0  0  0  0  0  0
   -3.7686   -1.1155    2.3275 H   0  0  0  0  0  0  0  0  0  0  0  0
   -5.9040    0.1804    2.0098 H   0  0  0  0  0  0  0  0  0  0  0  0
   -4.4810    1.0393    1.4018 H   0  0  0  0  0  0  0  0  0  0  0  0
   -5.5768    0.2354    0.2661 H   0  0  0  0  0  0  0  0  0  0  0  0
   -1.6526    2.4670   -0.0660 H   0  0  0  0  0  0  0  0  0  0  0  0
   -1.5007    2.1713   -1.8084 H   0  0  0  0  0  0  0  0  0  0  0  0
   -4.0243    3.1709   -0.3783 H   0  0  0  0  0  0  0  0  0  0  0  0
   -2.9598    4.1335   -1.4161 H   0  0  0  0  0  0  0  0  0  0  0  0
   -3.9126    2.8086   -2.1063 H   0  0  0  0  0  0  0  0  0  0  0  0
  1  2  1  0  0  0  0
  2  3  1  0  0  0  0
  3  4  2  0  0  0  0
  4  5  2  0  0  0  0
  4  6  2  0  0  0  0
  6  7  1  0  0  0  0
  7  8  1  0  0  0  0
  4  9  1  0  0  0  0
  9 10  1  0  0  0  0
 10 11  1  0  0  0  0
 11 12  1  0  0  0  0
 12 13  2  0  0  0  0
 12 14  2  0  0  0  0
 14 15  1  0  0  0  0
 15 16  1  0  0  0  0
 12 17  2  0  0  0  0
 17 18  1  0  0  0  0
 18 19  1  0  0  0  0
  1 20  1  0  0  0  0
  1 21  1  0  0  0  0
  1 22  1  0  0  0  0
  2 23  1  0  0  0  0
  2 24  1  0  0  0  0
  7 25  1  0  0  0  0
  7 26  1  0  0  0  0
  8 27  1  0  0  0  0
  8 28  1  0  0  0  0
  8 29  1  0  0  0  0
 10 30  1  0  0  0  0
 10 31  1  0  0  0  0
 15 32  1  0  0  0  0
 15 33  1  0  0  0  0
 16 34  1  0  0  0  0
 16 35  1  0  0  0  0
 16 36  1  0  0  0  0
 18 37  1  0  0  0  0
 18 38  1  0  0  0  0
 19 39  1  0  0  0  0
 19 40  1  0  0  0  0
 19 41  1  0  0  0  0
M  END
