 xtb: 6.7.1 (edcfbbe)
          04092505213D

 41 40  0     0  0            999 V2000
    5.1794    0.8002   -0.2463 C   0  0  0  0  0  0  0  0  0  0  0  0
    3.8915    1.1071   -0.9808 C   0  0  0  0  0  0  0  0  0  0  0  0
    2.9979   -0.0258   -0.9847 O   0  0  0  0  0  0  0  0  0  0  0  0
    2.2800   -0.5250    0.3344 P   0  0  0  0  0  0  0  0  0  0  0  0
    1.8821    0.8486    1.6844 S   0  0  0  0  0  0  0  0  0  0  0  0
    3.2665   -1.6555    0.8585 O   0  0  0  0  0  0  0  0  0  0  0  0
    3.1524   -2.2150    2.1775 C   0  0  0  0  0  0  0  0  0  0  0  0
    1.8858   -3.0319    2.3309 C   0  0  0  0  0  0  0  0  0  0  0  0
    0.6921   -1.6251   -0.5420 S   0  0  0  0  0  0  0  0  0  0  0  0
    0.1755   -0.4515   -1.8274 C   0  0  0  0  0  0  0  0  0  0  0  0
   -0.2983    1.1757   -1.1875 S   0  0  0  0  0  0  0  0  0  0  0  0
   -2.3043    0.7412   -0.6448 P   0  0  0  0  0  0  0  0  0  0  0  0
   -3.0811   -0.8224   -1.5469 S   0  0  0  0  0  0  0  0  0  0  0  0
   -2.9295    2.1410   -1.0324 O   0  0  0  0  0  0  0  0  0  0  0  0
   -4.0814    2.7255   -0.3855 C   0  0  0  0  0  0  0  0  0  0  0  0
   -5.3054    1.8392   -0.4849 C   0  0  0  0  0  0  0  0  0  0  0  0
   -2.4032    0.8025    0.9430 O   0  0  0  0  0  0  0  0  0  0  0  0
   -1.7965   -0.0760    1.9046 C   0  0  0  0  0  0  0  0  0  0  0  0
   -2.2484   -1.5160    1.7726 C   0  0  0  0  0  0  0  0  0  0  0  0
    5.8642    1.6353   -0.3555 H   0  0  0  0  0  0  0  0  0  0  0  0
    4.9738    0.6468    0.8123 H   0  0  0  0  0  0  0  0  0  0  0  0
    5.6357   -0.0999   -0.6496 H   0  0  0  0  0  0  0  0  0  0  0  0
    4.0651    1.3082   -2.0387 H   0  0  0  0  0  0  0  0  0  0  0  0
    3.3734    1.9558   -0.5224 H   0  0  0  0  0  0  0  0  0  0  0  0
    4.0475   -2.8291    2.2830 H   0  0  0  0  0  0  0  0  0  0  0  0
    3.1723   -1.3958    2.9039 H   0  0  0  0  0  0  0  0  0  0  0  0
    1.0158   -2.3821    2.2353 H   0  0  0  0  0  0  0  0  0  0  0  0
    1.8322   -3.7965    1.5603 H   0  0  0  0  0  0  0  0  0  0  0  0
    1.8721   -3.5008    3.3094 H   0  0  0  0  0  0  0  0  0  0  0  0
   -0.6883   -0.9104   -2.3149 H   0  0  0  0  0  0  0  0  0  0  0  0
    0.9928   -0.2976   -2.5259 H   0  0  0  0  0  0  0  0  0  0  0  0
   -3.8263    2.9257    0.6573 H   0  0  0  0  0  0  0  0  0  0  0  0
   -4.2215    3.6656   -0.9217 H   0  0  0  0  0  0  0  0  0  0  0  0
   -6.1578    2.3484   -0.0463 H   0  0  0  0  0  0  0  0  0  0  0  0
   -5.5200    1.6057   -1.5253 H   0  0  0  0  0  0  0  0  0  0  0  0
   -5.1333    0.9054    0.0490 H   0  0  0  0  0  0  0  0  0  0  0  0
   -0.7087    0.0087    1.8177 H   0  0  0  0  0  0  0  0  0  0  0  0
   -2.1071    0.3493    2.8613 H   0  0  0  0  0  0  0  0  0  0  0  0
   -1.8696   -2.0828    2.6173 H   0  0  0  0  0  0  0  0  0  0  0  0
   -3.3341   -1.5709    1.7639 H   0  0  0  0  0  0  0  0  0  0  0  0
   -1.8700   -1.9595    0.8536 H   0  0  0  0  0  0  0  0  0  0  0  0
  1  2  1  0  0  0  0
  2  3  1  0  0  0  0
  3  4  2  0  0  0  0
  4  5  2  0  0  0  0
  4  6  2  0  0  0  0
  6  7  1  0  0  0  0
  7  8  1  0  0  0  0
  4  9  1  0  0  0  0
  9 10  1  0  0  0  0
 10 11  1  0  0  0  0
 11 12  1  0  0  0  0
 12 13  2  0  0  0  0
 12 14  2  0  0  0  0
 14 15  1  0  0  0  0
 15 16  1  0  0  0  0
 12 17  2  0  0  0  0
 17 18  1  0  0  0  0
 18 19  1  0  0  0  0
  1 20  1  0  0  0  0
  1 21  1  0  0  0  0
  1 22  1  0  0  0  0
  2 23  1  0  0  0  0
  2 24  1  0  0  0  0
  7 25  1  0  0  0  0
  7 26  1  0  0  0  0
  8 27  1  0  0  0  0
  8 28  1  0  0  0  0
  8 29  1  0  0  0  0
 10 30  1  0  0  0  0
 10 31  1  0  0  0  0
 15 32  1  0  0  0  0
 15 33  1  0  0  0  0
 16 34  1  0  0  0  0
 16 35  1  0  0  0  0
 16 36  1  0  0  0  0
 18 37  1  0  0  0  0
 18 38  1  0  0  0  0
 19 39  1  0  0  0  0
 19 40  1  0  0  0  0
 19 41  1  0  0  0  0
M  END
