 xtb: 6.7.1 (edcfbbe)
          04092505203D

 41 40  0     0  0            999 V2000
    4.7503   -0.3545   -1.8943 C   0  0  0  0  0  0  0  0  0  0  0  0
    3.9533   -1.6064   -1.5920 C   0  0  0  0  0  0  0  0  0  0  0  0
    3.2583   -1.5394   -0.3340 O   0  0  0  0  0  0  0  0  0  0  0  0
    2.3121   -0.3576    0.1422 P   0  0  0  0  0  0  0  0  0  0  0  0
    3.1545    1.2922    0.7972 S   0  0  0  0  0  0  0  0  0  0  0  0
    1.4343   -1.1081    1.2288 O   0  0  0  0  0  0  0  0  0  0  0  0
    1.6845   -0.9856    2.6434 C   0  0  0  0  0  0  0  0  0  0  0  0
    2.9058   -1.7839    3.0461 C   0  0  0  0  0  0  0  0  0  0  0  0
    0.9323   -0.1411   -1.4538 S   0  0  0  0  0  0  0  0  0  0  0  0
    0.1951    1.3974   -0.8425 C   0  0  0  0  0  0  0  0  0  0  0  0
   -0.8881    1.1384    0.5793 S   0  0  0  0  0  0  0  0  0  0  0  0
   -2.4978    0.2516   -0.5123 P   0  0  0  0  0  0  0  0  0  0  0  0
   -2.7672    0.9342   -2.3258 S   0  0  0  0  0  0  0  0  0  0  0  0
   -3.7539    0.3934    0.4501 O   0  0  0  0  0  0  0  0  0  0  0  0
   -4.6141    1.5458    0.4317 C   0  0  0  0  0  0  0  0  0  0  0  0
   -3.9133    2.7974    0.9194 C   0  0  0  0  0  0  0  0  0  0  0  0
   -2.2392   -1.3023   -0.5350 O   0  0  0  0  0  0  0  0  0  0  0  0
   -1.7384   -2.1484    0.5279 C   0  0  0  0  0  0  0  0  0  0  0  0
   -2.4479   -1.9326    1.8468 C   0  0  0  0  0  0  0  0  0  0  0  0
    5.3201   -0.5014   -2.8062 H   0  0  0  0  0  0  0  0  0  0  0  0
    4.0809    0.4944   -2.0290 H   0  0  0  0  0  0  0  0  0  0  0  0
    5.4314   -0.1303   -1.0766 H   0  0  0  0  0  0  0  0  0  0  0  0
    4.6035   -2.4760   -1.4798 H   0  0  0  0  0  0  0  0  0  0  0  0
    3.2158   -1.7944   -2.3776 H   0  0  0  0  0  0  0  0  0  0  0  0
    1.8129    0.0742    2.8857 H   0  0  0  0  0  0  0  0  0  0  0  0
    0.7744   -1.3639    3.1104 H   0  0  0  0  0  0  0  0  0  0  0  0
    2.7894   -2.8237    2.7530 H   0  0  0  0  0  0  0  0  0  0  0  0
    3.7864   -1.3770    2.5499 H   0  0  0  0  0  0  0  0  0  0  0  0
    3.0428   -1.7211    4.1208 H   0  0  0  0  0  0  0  0  0  0  0  0
   -0.3846    1.8150   -1.6665 H   0  0  0  0  0  0  0  0  0  0  0  0
    0.9873    2.0752   -0.5225 H   0  0  0  0  0  0  0  0  0  0  0  0
   -4.9825    1.6855   -0.5894 H   0  0  0  0  0  0  0  0  0  0  0  0
   -5.4382    1.2642    1.0886 H   0  0  0  0  0  0  0  0  0  0  0  0
   -4.6377    3.6005    1.0096 H   0  0  0  0  0  0  0  0  0  0  0  0
   -3.4476    2.6209    1.8857 H   0  0  0  0  0  0  0  0  0  0  0  0
   -3.1452    3.0963    0.2077 H   0  0  0  0  0  0  0  0  0  0  0  0
   -1.9051   -3.1546    0.1397 H   0  0  0  0  0  0  0  0  0  0  0  0
   -0.6643   -1.9695    0.6253 H   0  0  0  0  0  0  0  0  0  0  0  0
   -2.2472   -0.9318    2.2250 H   0  0  0  0  0  0  0  0  0  0  0  0
   -3.5209   -2.0515    1.7208 H   0  0  0  0  0  0  0  0  0  0  0  0
   -2.0878   -2.6635    2.5647 H   0  0  0  0  0  0  0  0  0  0  0  0
  1  2  1  0  0  0  0
  2  3  1  0  0  0  0
  3  4  2  0  0  0  0
  4  5  2  0  0  0  0
  4  6  2  0  0  0  0
  6  7  1  0  0  0  0
  7  8  1  0  0  0  0
  4  9  1  0  0  0  0
  9 10  1  0  0  0  0
 10 11  1  0  0  0  0
 11 12  1  0  0  0  0
 12 13  2  0  0  0  0
 12 14  2  0  0  0  0
 14 15  1  0  0  0  0
 15 16  1  0  0  0  0
 12 17  2  0  0  0  0
 17 18  1  0  0  0  0
 18 19  1  0  0  0  0
  1 20  1  0  0  0  0
  1 21  1  0  0  0  0
  1 22  1  0  0  0  0
  2 23  1  0  0  0  0
  2 24  1  0  0  0  0
  7 25  1  0  0  0  0
  7 26  1  0  0  0  0
  8 27  1  0  0  0  0
  8 28  1  0  0  0  0
  8 29  1  0  0  0  0
 10 30  1  0  0  0  0
 10 31  1  0  0  0  0
 15 32  1  0  0  0  0
 15 33  1  0  0  0  0
 16 34  1  0  0  0  0
 16 35  1  0  0  0  0
 16 36  1  0  0  0  0
 18 37  1  0  0  0  0
 18 38  1  0  0  0  0
 19 39  1  0  0  0  0
 19 40  1  0  0  0  0
 19 41  1  0  0  0  0
M  END
