 xtb: 6.7.1 (edcfbbe)
          04032519423D

 20 20  0     0  0            999 V2000
    0.5878    1.7028   -0.0045 C   0  0  0  0  0  0  0  0  0  0  0  0
    1.4034    0.4253   -0.2662 C   0  0  0  0  0  0  0  0  0  0  0  0
    1.5943    0.3392   -1.3492 H   0  0  0  0  0  0  0  0  0  0  0  0
    0.5694   -0.7822    0.1790 C   0  0  0  0  0  0  0  0  0  0  0  0
    0.4153   -0.7202    1.2620 H   0  0  0  0  0  0  0  0  0  0  0  0
   -0.7958   -0.7447   -0.5304 C   0  0  0  0  0  0  0  0  0  0  0  0
   -0.6441   -0.8572   -1.6159 H   0  0  0  0  0  0  0  0  0  0  0  0
   -1.4817    0.6126   -0.2797 C   0  0  0  0  0  0  0  0  0  0  0  0
   -2.3776    0.6951   -0.9149 H   0  0  0  0  0  0  0  0  0  0  0  0
   -0.6625    1.6668   -0.6799 O   0  0  0  0  0  0  0  0  0  0  0  0
   -1.8260    0.7530    1.0685 O   0  0  0  0  0  0  0  0  0  0  0  0
   -1.6503   -1.7491   -0.0471 O   0  0  0  0  0  0  0  0  0  0  0  0
    1.1972   -2.0214   -0.0386 O   0  0  0  0  0  0  0  0  0  0  0  0
    2.6100    0.4157    0.4535 O   0  0  0  0  0  0  0  0  0  0  0  0
    1.0928    2.5833   -0.4021 H   0  0  0  0  0  0  0  0  0  0  0  0
    0.4302    1.8188    1.0737 H   0  0  0  0  0  0  0  0  0  0  0  0
   -2.2817   -0.0591    1.3427 H   0  0  0  0  0  0  0  0  0  0  0  0
   -1.1333   -2.5641    0.0593 H   0  0  0  0  0  0  0  0  0  0  0  0
    1.6346   -2.0267   -0.9019 H   0  0  0  0  0  0  0  0  0  0  0  0
    3.1597    1.1664    0.1873 H   0  0  0  0  0  0  0  0  0  0  0  0
  1  2  1  0  0  0  0
  2  3  1  0  0  0  0
  2  4  1  0  0  0  0
  4  5  1  0  0  0  0
  4  6  1  0  0  0  0
  6  7  1  0  0  0  0
  6  8  1  0  0  0  0
  8  9  1  0  0  0  0
  1 10  1  0  0  0  0
  8 10  1  0  0  0  0
  8 11  1  0  0  0  0
  6 12  1  0  0  0  0
  4 13  1  0  0  0  0
  2 14  1  0  0  0  0
  1 15  1  0  0  0  0
  1 16  1  0  0  0  0
 11 17  1  0  0  0  0
 12 18  1  0  0  0  0
 13 19  1  0  0  0  0
 14 20  1  0  0  0  0
M  END
