 xtb: 6.7.1 (edcfbbe)
          04092505213D

 41 40  0     0  0            999 V2000
    3.1880    2.3197   -0.8586 C   0  0  0  0  0  0  0  0  0  0  0  0
    1.7952    1.7988   -0.5767 C   0  0  0  0  0  0  0  0  0  0  0  0
    1.7319    1.0858    0.6838 O   0  0  0  0  0  0  0  0  0  0  0  0
    2.0928   -0.4293    0.9089 P   0  0  0  0  0  0  0  0  0  0  0  0
    1.7770   -0.9960    2.7518 S   0  0  0  0  0  0  0  0  0  0  0  0
    3.6009   -0.5224    0.4206 O   0  0  0  0  0  0  0  0  0  0  0  0
    4.3660   -1.7337    0.5906 C   0  0  0  0  0  0  0  0  0  0  0  0
    5.8358   -1.3703    0.5331 C   0  0  0  0  0  0  0  0  0  0  0  0
    1.0685   -1.5497   -0.5916 S   0  0  0  0  0  0  0  0  0  0  0  0
   -0.4513   -1.8369    0.3582 C   0  0  0  0  0  0  0  0  0  0  0  0
   -1.2264   -0.3239    0.9794 S   0  0  0  0  0  0  0  0  0  0  0  0
   -2.2369    0.2471   -0.8275 P   0  0  0  0  0  0  0  0  0  0  0  0
   -1.1775    0.3158   -2.4672 S   0  0  0  0  0  0  0  0  0  0  0  0
   -2.9709    1.5749   -0.3567 O   0  0  0  0  0  0  0  0  0  0  0  0
   -2.2725    2.7650    0.0578 C   0  0  0  0  0  0  0  0  0  0  0  0
   -1.8889    3.6286   -1.1281 C   0  0  0  0  0  0  0  0  0  0  0  0
   -3.4189   -0.7801   -0.9843 O   0  0  0  0  0  0  0  0  0  0  0  0
   -4.4570   -0.9756    0.0091 C   0  0  0  0  0  0  0  0  0  0  0  0
   -5.6878   -0.1650   -0.3408 C   0  0  0  0  0  0  0  0  0  0  0  0
    3.1553    2.9376   -1.7506 H   0  0  0  0  0  0  0  0  0  0  0  0
    3.5391    2.9145   -0.0197 H   0  0  0  0  0  0  0  0  0  0  0  0
    3.8773    1.4959   -1.0194 H   0  0  0  0  0  0  0  0  0  0  0  0
    1.4456    1.1416   -1.3792 H   0  0  0  0  0  0  0  0  0  0  0  0
    1.0868    2.6193   -0.4440 H   0  0  0  0  0  0  0  0  0  0  0  0
    4.1018   -2.1799    1.5553 H   0  0  0  0  0  0  0  0  0  0  0  0
    4.0908   -2.4233   -0.2117 H   0  0  0  0  0  0  0  0  0  0  0  0
    6.0713   -0.9151   -0.4244 H   0  0  0  0  0  0  0  0  0  0  0  0
    6.0770   -0.6688    1.3268 H   0  0  0  0  0  0  0  0  0  0  0  0
    6.4290   -2.2702    0.6580 H   0  0  0  0  0  0  0  0  0  0  0  0
   -0.2107   -2.4302    1.2395 H   0  0  0  0  0  0  0  0  0  0  0  0
   -1.1350   -2.3630   -0.3051 H   0  0  0  0  0  0  0  0  0  0  0  0
   -2.9838    3.2790    0.7075 H   0  0  0  0  0  0  0  0  0  0  0  0
   -1.3945    2.4768    0.6438 H   0  0  0  0  0  0  0  0  0  0  0  0
   -1.4092    4.5345   -0.7713 H   0  0  0  0  0  0  0  0  0  0  0  0
   -1.2049    3.0936   -1.7834 H   0  0  0  0  0  0  0  0  0  0  0  0
   -2.7752    3.8931   -1.6980 H   0  0  0  0  0  0  0  0  0  0  0  0
   -4.6659   -2.0465   -0.0206 H   0  0  0  0  0  0  0  0  0  0  0  0
   -4.0650   -0.7005    0.9921 H   0  0  0  0  0  0  0  0  0  0  0  0
   -6.0350   -0.4275   -1.3364 H   0  0  0  0  0  0  0  0  0  0  0  0
   -6.4704   -0.3792    0.3804 H   0  0  0  0  0  0  0  0  0  0  0  0
   -5.4588    0.8969   -0.3187 H   0  0  0  0  0  0  0  0  0  0  0  0
  1  2  1  0  0  0  0
  2  3  1  0  0  0  0
  3  4  2  0  0  0  0
  4  5  2  0  0  0  0
  4  6  2  0  0  0  0
  6  7  1  0  0  0  0
  7  8  1  0  0  0  0
  4  9  1  0  0  0  0
  9 10  1  0  0  0  0
 10 11  1  0  0  0  0
 11 12  1  0  0  0  0
 12 13  2  0  0  0  0
 12 14  2  0  0  0  0
 14 15  1  0  0  0  0
 15 16  1  0  0  0  0
 12 17  2  0  0  0  0
 17 18  1  0  0  0  0
 18 19  1  0  0  0  0
  1 20  1  0  0  0  0
  1 21  1  0  0  0  0
  1 22  1  0  0  0  0
  2 23  1  0  0  0  0
  2 24  1  0  0  0  0
  7 25  1  0  0  0  0
  7 26  1  0  0  0  0
  8 27  1  0  0  0  0
  8 28  1  0  0  0  0
  8 29  1  0  0  0  0
 10 30  1  0  0  0  0
 10 31  1  0  0  0  0
 15 32  1  0  0  0  0
 15 33  1  0  0  0  0
 16 34  1  0  0  0  0
 16 35  1  0  0  0  0
 16 36  1  0  0  0  0
 18 37  1  0  0  0  0
 18 38  1  0  0  0  0
 19 39  1  0  0  0  0
 19 40  1  0  0  0  0
 19 41  1  0  0  0  0
M  END
