 xtb: 6.7.1 (edcfbbe)
          04092505213D

 41 40  0     0  0            999 V2000
    1.3780   -2.3292    1.2477 C   0  0  0  0  0  0  0  0  0  0  0  0
    2.8572   -2.0175    1.3351 C   0  0  0  0  0  0  0  0  0  0  0  0
    3.1438   -0.6315    1.0844 O   0  0  0  0  0  0  0  0  0  0  0  0
    2.8717    0.0798   -0.3144 P   0  0  0  0  0  0  0  0  0  0  0  0
    3.1691   -1.0133   -1.9103 S   0  0  0  0  0  0  0  0  0  0  0  0
    3.8715    1.2988   -0.2560 O   0  0  0  0  0  0  0  0  0  0  0  0
    4.2716    2.0080    0.9416 C   0  0  0  0  0  0  0  0  0  0  0  0
    3.1008    2.6448    1.6591 C   0  0  0  0  0  0  0  0  0  0  0  0
    0.9273    0.9742   -0.1655 S   0  0  0  0  0  0  0  0  0  0  0  0
    0.1378    0.3128   -1.6483 C   0  0  0  0  0  0  0  0  0  0  0  0
   -0.9657   -1.0937   -1.3200 S   0  0  0  0  0  0  0  0  0  0  0  0
   -2.3184   -0.0401   -0.0874 P   0  0  0  0  0  0  0  0  0  0  0  0
   -2.7182    1.8075   -0.6246 S   0  0  0  0  0  0  0  0  0  0  0  0
   -1.6716   -0.2435    1.3398 O   0  0  0  0  0  0  0  0  0  0  0  0
   -1.9118    0.6785    2.4239 C   0  0  0  0  0  0  0  0  0  0  0  0
   -3.3399    0.5916    2.9182 C   0  0  0  0  0  0  0  0  0  0  0  0
   -3.5746   -1.0071   -0.0110 O   0  0  0  0  0  0  0  0  0  0  0  0
   -4.5269   -1.0982   -1.0894 C   0  0  0  0  0  0  0  0  0  0  0  0
   -5.7891   -1.7345   -0.5430 C   0  0  0  0  0  0  0  0  0  0  0  0
    1.0393   -2.2437    0.2158 H   0  0  0  0  0  0  0  0  0  0  0  0
    1.2031   -3.3462    1.5836 H   0  0  0  0  0  0  0  0  0  0  0  0
    0.8009   -1.6441    1.8648 H   0  0  0  0  0  0  0  0  0  0  0  0
    3.4165   -2.6224    0.6152 H   0  0  0  0  0  0  0  0  0  0  0  0
    3.2452   -2.1822    2.3416 H   0  0  0  0  0  0  0  0  0  0  0  0
    4.7940    1.3058    1.5942 H   0  0  0  0  0  0  0  0  0  0  0  0
    4.9696    2.7570    0.5648 H   0  0  0  0  0  0  0  0  0  0  0  0
    3.4698    3.2115    2.5083 H   0  0  0  0  0  0  0  0  0  0  0  0
    2.5593    3.3103    0.9916 H   0  0  0  0  0  0  0  0  0  0  0  0
    2.4163    1.8765    2.0149 H   0  0  0  0  0  0  0  0  0  0  0  0
    0.9045   -0.0470   -2.3372 H   0  0  0  0  0  0  0  0  0  0  0  0
   -0.4475    1.1207   -2.0850 H   0  0  0  0  0  0  0  0  0  0  0  0
   -1.1974    0.3764    3.1905 H   0  0  0  0  0  0  0  0  0  0  0  0
   -1.6785    1.6901    2.0767 H   0  0  0  0  0  0  0  0  0  0  0  0
   -3.5826   -0.4332    3.1862 H   0  0  0  0  0  0  0  0  0  0  0  0
   -3.4636    1.2341    3.7842 H   0  0  0  0  0  0  0  0  0  0  0  0
   -4.0197    0.9203    2.1328 H   0  0  0  0  0  0  0  0  0  0  0  0
   -4.7179   -0.0900   -1.4730 H   0  0  0  0  0  0  0  0  0  0  0  0
   -4.0856   -1.7052   -1.8848 H   0  0  0  0  0  0  0  0  0  0  0  0
   -6.2161   -1.1112    0.2374 H   0  0  0  0  0  0  0  0  0  0  0  0
   -6.5090   -1.8447   -1.3472 H   0  0  0  0  0  0  0  0  0  0  0  0
   -5.5594   -2.7114   -0.1278 H   0  0  0  0  0  0  0  0  0  0  0  0
  1  2  1  0  0  0  0
  2  3  1  0  0  0  0
  3  4  2  0  0  0  0
  4  5  2  0  0  0  0
  4  6  2  0  0  0  0
  6  7  1  0  0  0  0
  7  8  1  0  0  0  0
  4  9  1  0  0  0  0
  9 10  1  0  0  0  0
 10 11  1  0  0  0  0
 11 12  1  0  0  0  0
 12 13  2  0  0  0  0
 12 14  2  0  0  0  0
 14 15  1  0  0  0  0
 15 16  1  0  0  0  0
 12 17  2  0  0  0  0
 17 18  1  0  0  0  0
 18 19  1  0  0  0  0
  1 20  1  0  0  0  0
  1 21  1  0  0  0  0
  1 22  1  0  0  0  0
  2 23  1  0  0  0  0
  2 24  1  0  0  0  0
  7 25  1  0  0  0  0
  7 26  1  0  0  0  0
  8 27  1  0  0  0  0
  8 28  1  0  0  0  0
  8 29  1  0  0  0  0
 10 30  1  0  0  0  0
 10 31  1  0  0  0  0
 15 32  1  0  0  0  0
 15 33  1  0  0  0  0
 16 34  1  0  0  0  0
 16 35  1  0  0  0  0
 16 36  1  0  0  0  0
 18 37  1  0  0  0  0
 18 38  1  0  0  0  0
 19 39  1  0  0  0  0
 19 40  1  0  0  0  0
 19 41  1  0  0  0  0
M  END
