 xtb: 6.7.1 (edcfbbe)
          04092505203D

 41 40  0     0  0            999 V2000
    4.6743    0.3810   -1.8378 C   0  0  0  0  0  0  0  0  0  0  0  0
    4.4731    0.9298   -0.4406 C   0  0  0  0  0  0  0  0  0  0  0  0
    3.4483    0.2193    0.2767 O   0  0  0  0  0  0  0  0  0  0  0  0
    1.9169    0.2963   -0.1411 P   0  0  0  0  0  0  0  0  0  0  0  0
    1.3425    2.0873   -0.6743 S   0  0  0  0  0  0  0  0  0  0  0  0
    1.1695   -0.2461    1.1414 O   0  0  0  0  0  0  0  0  0  0  0  0
    1.7104   -1.3248    1.9520 C   0  0  0  0  0  0  0  0  0  0  0  0
    2.4112   -0.7633    3.1702 C   0  0  0  0  0  0  0  0  0  0  0  0
    1.7544   -1.2886   -1.5595 S   0  0  0  0  0  0  0  0  0  0  0  0
   -0.0199   -1.6592   -1.4433 C   0  0  0  0  0  0  0  0  0  0  0  0
   -1.1033   -0.2164   -1.6122 S   0  0  0  0  0  0  0  0  0  0  0  0
   -1.9619   -0.1625    0.3456 P   0  0  0  0  0  0  0  0  0  0  0  0
   -1.7182   -1.7725    1.4260 S   0  0  0  0  0  0  0  0  0  0  0  0
   -3.4578    0.2754    0.0237 O   0  0  0  0  0  0  0  0  0  0  0  0
   -4.3220   -0.3387   -0.9505 C   0  0  0  0  0  0  0  0  0  0  0  0
   -4.5016   -1.8256   -0.7273 C   0  0  0  0  0  0  0  0  0  0  0  0
   -1.4414    1.1016    1.1267 O   0  0  0  0  0  0  0  0  0  0  0  0
   -1.7285    2.4692    0.7498 C   0  0  0  0  0  0  0  0  0  0  0  0
   -2.8749    3.0149    1.5750 C   0  0  0  0  0  0  0  0  0  0  0  0
    5.5263    0.8718   -2.2970 H   0  0  0  0  0  0  0  0  0  0  0  0
    4.8488   -0.6915   -1.8036 H   0  0  0  0  0  0  0  0  0  0  0  0
    3.7890    0.5723   -2.4432 H   0  0  0  0  0  0  0  0  0  0  0  0
    4.1977    1.9885   -0.4780 H   0  0  0  0  0  0  0  0  0  0  0  0
    5.3624    0.7977    0.1770 H   0  0  0  0  0  0  0  0  0  0  0  0
    0.8396   -1.9211    2.2345 H   0  0  0  0  0  0  0  0  0  0  0  0
    2.3897   -1.9229    1.3401 H   0  0  0  0  0  0  0  0  0  0  0  0
    2.7380   -1.5859    3.7985 H   0  0  0  0  0  0  0  0  0  0  0  0
    3.2727   -0.1708    2.8728 H   0  0  0  0  0  0  0  0  0  0  0  0
    1.7260   -0.1333    3.7313 H   0  0  0  0  0  0  0  0  0  0  0  0
   -0.2432   -2.1449   -0.4879 H   0  0  0  0  0  0  0  0  0  0  0  0
   -0.2241   -2.3252   -2.2784 H   0  0  0  0  0  0  0  0  0  0  0  0
   -5.2643    0.1983   -0.8279 H   0  0  0  0  0  0  0  0  0  0  0  0
   -3.9116   -0.1426   -1.9450 H   0  0  0  0  0  0  0  0  0  0  0  0
   -5.2372   -2.2062   -1.4285 H   0  0  0  0  0  0  0  0  0  0  0  0
   -3.5592   -2.3485   -0.8820 H   0  0  0  0  0  0  0  0  0  0  0  0
   -4.8379   -2.0192    0.2886 H   0  0  0  0  0  0  0  0  0  0  0  0
   -0.8001    3.0105    0.9428 H   0  0  0  0  0  0  0  0  0  0  0  0
   -1.9455    2.5099   -0.3206 H   0  0  0  0  0  0  0  0  0  0  0  0
   -3.0270    4.0587    1.3192 H   0  0  0  0  0  0  0  0  0  0  0  0
   -3.7851    2.4562    1.3728 H   0  0  0  0  0  0  0  0  0  0  0  0
   -2.6404    2.9335    2.6329 H   0  0  0  0  0  0  0  0  0  0  0  0
  1  2  1  0  0  0  0
  2  3  1  0  0  0  0
  3  4  2  0  0  0  0
  4  5  2  0  0  0  0
  4  6  2  0  0  0  0
  6  7  1  0  0  0  0
  7  8  1  0  0  0  0
  4  9  1  0  0  0  0
  9 10  1  0  0  0  0
 10 11  1  0  0  0  0
 11 12  1  0  0  0  0
 12 13  2  0  0  0  0
 12 14  2  0  0  0  0
 14 15  1  0  0  0  0
 15 16  1  0  0  0  0
 12 17  2  0  0  0  0
 17 18  1  0  0  0  0
 18 19  1  0  0  0  0
  1 20  1  0  0  0  0
  1 21  1  0  0  0  0
  1 22  1  0  0  0  0
  2 23  1  0  0  0  0
  2 24  1  0  0  0  0
  7 25  1  0  0  0  0
  7 26  1  0  0  0  0
  8 27  1  0  0  0  0
  8 28  1  0  0  0  0
  8 29  1  0  0  0  0
 10 30  1  0  0  0  0
 10 31  1  0  0  0  0
 15 32  1  0  0  0  0
 15 33  1  0  0  0  0
 16 34  1  0  0  0  0
 16 35  1  0  0  0  0
 16 36  1  0  0  0  0
 18 37  1  0  0  0  0
 18 38  1  0  0  0  0
 19 39  1  0  0  0  0
 19 40  1  0  0  0  0
 19 41  1  0  0  0  0
M  END
