 xtb: 6.7.1 (edcfbbe)
          04092505213D

 41 40  0     0  0            999 V2000
    3.7188   -2.3787   -0.8782 C   0  0  0  0  0  0  0  0  0  0  0  0
    3.8783   -1.4848    0.3365 C   0  0  0  0  0  0  0  0  0  0  0  0
    3.3946   -0.1503    0.1160 O   0  0  0  0  0  0  0  0  0  0  0  0
    1.8783    0.2708   -0.1511 P   0  0  0  0  0  0  0  0  0  0  0  0
    1.2398   -0.0689   -1.9763 S   0  0  0  0  0  0  0  0  0  0  0  0
    1.9541    1.7829    0.2935 O   0  0  0  0  0  0  0  0  0  0  0  0
    1.9564    2.8739   -0.6433 C   0  0  0  0  0  0  0  0  0  0  0  0
    3.3121    3.0195   -1.3016 C   0  0  0  0  0  0  0  0  0  0  0  0
    0.8548   -0.4960    1.5470 S   0  0  0  0  0  0  0  0  0  0  0  0
    0.1405   -2.0522    0.9327 C   0  0  0  0  0  0  0  0  0  0  0  0
   -1.1169   -1.8849   -0.3826 S   0  0  0  0  0  0  0  0  0  0  0  0
   -2.0752   -0.1000    0.1808 P   0  0  0  0  0  0  0  0  0  0  0  0
   -1.2992    1.6931   -0.0791 S   0  0  0  0  0  0  0  0  0  0  0  0
   -2.4489   -0.4777    1.6676 O   0  0  0  0  0  0  0  0  0  0  0  0
   -2.7170    0.4822    2.7141 C   0  0  0  0  0  0  0  0  0  0  0  0
   -2.0211    0.0230    3.9795 C   0  0  0  0  0  0  0  0  0  0  0  0
   -3.4781   -0.2354   -0.5601 O   0  0  0  0  0  0  0  0  0  0  0  0
   -3.7084    0.2790   -1.8815 C   0  0  0  0  0  0  0  0  0  0  0  0
   -2.8985   -0.4628   -2.9256 C   0  0  0  0  0  0  0  0  0  0  0  0
    2.6677   -2.4958   -1.1380 H   0  0  0  0  0  0  0  0  0  0  0  0
    4.2284   -1.9438   -1.7342 H   0  0  0  0  0  0  0  0  0  0  0  0
    4.1447   -3.3539   -0.6647 H   0  0  0  0  0  0  0  0  0  0  0  0
    4.9324   -1.3364    0.5790 H   0  0  0  0  0  0  0  0  0  0  0  0
    3.3614   -1.9006    1.2076 H   0  0  0  0  0  0  0  0  0  0  0  0
    1.1714    2.7032   -1.3879 H   0  0  0  0  0  0  0  0  0  0  0  0
    1.6940    3.7438   -0.0396 H   0  0  0  0  0  0  0  0  0  0  0  0
    3.3035    3.8829   -1.9591 H   0  0  0  0  0  0  0  0  0  0  0  0
    4.0828    3.1425   -0.5455 H   0  0  0  0  0  0  0  0  0  0  0  0
    3.5313    2.1263   -1.8857 H   0  0  0  0  0  0  0  0  0  0  0  0
   -0.3254   -2.5076    1.8041 H   0  0  0  0  0  0  0  0  0  0  0  0
    0.9116   -2.6996    0.5211 H   0  0  0  0  0  0  0  0  0  0  0  0
   -2.3560    1.4655    2.3930 H   0  0  0  0  0  0  0  0  0  0  0  0
   -3.8008    0.5192    2.8408 H   0  0  0  0  0  0  0  0  0  0  0  0
   -0.9450   -0.0093    3.8243 H   0  0  0  0  0  0  0  0  0  0  0  0
   -2.2464    0.7199    4.7801 H   0  0  0  0  0  0  0  0  0  0  0  0
   -2.3693   -0.9678    4.2557 H   0  0  0  0  0  0  0  0  0  0  0  0
   -4.7807    0.1473   -2.0318 H   0  0  0  0  0  0  0  0  0  0  0  0
   -3.4582    1.3453   -1.8862 H   0  0  0  0  0  0  0  0  0  0  0  0
   -3.0834   -1.5322   -2.8595 H   0  0  0  0  0  0  0  0  0  0  0  0
   -3.1699   -0.1083   -3.9147 H   0  0  0  0  0  0  0  0  0  0  0  0
   -1.8330   -0.2842   -2.7715 H   0  0  0  0  0  0  0  0  0  0  0  0
  1  2  1  0  0  0  0
  2  3  1  0  0  0  0
  3  4  2  0  0  0  0
  4  5  2  0  0  0  0
  4  6  2  0  0  0  0
  6  7  1  0  0  0  0
  7  8  1  0  0  0  0
  4  9  1  0  0  0  0
  9 10  1  0  0  0  0
 10 11  1  0  0  0  0
 11 12  1  0  0  0  0
 12 13  2  0  0  0  0
 12 14  2  0  0  0  0
 14 15  1  0  0  0  0
 15 16  1  0  0  0  0
 12 17  2  0  0  0  0
 17 18  1  0  0  0  0
 18 19  1  0  0  0  0
  1 20  1  0  0  0  0
  1 21  1  0  0  0  0
  1 22  1  0  0  0  0
  2 23  1  0  0  0  0
  2 24  1  0  0  0  0
  7 25  1  0  0  0  0
  7 26  1  0  0  0  0
  8 27  1  0  0  0  0
  8 28  1  0  0  0  0
  8 29  1  0  0  0  0
 10 30  1  0  0  0  0
 10 31  1  0  0  0  0
 15 32  1  0  0  0  0
 15 33  1  0  0  0  0
 16 34  1  0  0  0  0
 16 35  1  0  0  0  0
 16 36  1  0  0  0  0
 18 37  1  0  0  0  0
 18 38  1  0  0  0  0
 19 39  1  0  0  0  0
 19 40  1  0  0  0  0
 19 41  1  0  0  0  0
M  END
