 xtb: 6.7.1 (edcfbbe)
          04092505203D

 41 40  0     0  0            999 V2000
   -0.0344   -1.1964    3.1219 C   0  0  0  0  0  0  0  0  0  0  0  0
    1.2777   -1.3630    2.3838 C   0  0  0  0  0  0  0  0  0  0  0  0
    1.5387   -0.1678    1.6158 O   0  0  0  0  0  0  0  0  0  0  0  0
    2.3315   -0.1421    0.2451 P   0  0  0  0  0  0  0  0  0  0  0  0
    2.9910   -1.8970   -0.3419 S   0  0  0  0  0  0  0  0  0  0  0  0
    3.3983    0.9615    0.6400 O   0  0  0  0  0  0  0  0  0  0  0  0
    4.1437    1.7729   -0.2869 C   0  0  0  0  0  0  0  0  0  0  0  0
    4.8998    0.9517   -1.3111 C   0  0  0  0  0  0  0  0  0  0  0  0
    1.0971    0.8869   -1.1450 S   0  0  0  0  0  0  0  0  0  0  0  0
    0.2584   -0.5800   -1.7954 C   0  0  0  0  0  0  0  0  0  0  0  0
   -0.7484   -1.4261   -0.5492 S   0  0  0  0  0  0  0  0  0  0  0  0
   -2.0918    0.1732   -0.2155 P   0  0  0  0  0  0  0  0  0  0  0  0
   -2.6618    1.1978   -1.7907 S   0  0  0  0  0  0  0  0  0  0  0  0
   -1.3004    0.9715    0.8996 O   0  0  0  0  0  0  0  0  0  0  0  0
   -1.4800    2.3834    1.1162 C   0  0  0  0  0  0  0  0  0  0  0  0
   -2.8348    2.6850    1.7214 C   0  0  0  0  0  0  0  0  0  0  0  0
   -3.2629   -0.4764    0.6388 O   0  0  0  0  0  0  0  0  0  0  0  0
   -4.4349   -1.0517    0.0356 C   0  0  0  0  0  0  0  0  0  0  0  0
   -4.1189   -2.3207   -0.7296 C   0  0  0  0  0  0  0  0  0  0  0  0
    0.0048   -0.3131    3.7527 H   0  0  0  0  0  0  0  0  0  0  0  0
   -0.8575   -1.0888    2.4196 H   0  0  0  0  0  0  0  0  0  0  0  0
   -0.2042   -2.0739    3.7373 H   0  0  0  0  0  0  0  0  0  0  0  0
    1.2531   -2.2257    1.7096 H   0  0  0  0  0  0  0  0  0  0  0  0
    2.1090   -1.4836    3.0828 H   0  0  0  0  0  0  0  0  0  0  0  0
    3.4483    2.4600   -0.7776 H   0  0  0  0  0  0  0  0  0  0  0  0
    4.8247    2.3335    0.3561 H   0  0  0  0  0  0  0  0  0  0  0  0
    5.5164    1.6090   -1.9157 H   0  0  0  0  0  0  0  0  0  0  0  0
    5.5321    0.2182   -0.8164 H   0  0  0  0  0  0  0  0  0  0  0  0
    4.2023    0.4237   -1.9599 H   0  0  0  0  0  0  0  0  0  0  0  0
    0.9987   -1.3033   -2.1372 H   0  0  0  0  0  0  0  0  0  0  0  0
   -0.3762   -0.2379   -2.6123 H   0  0  0  0  0  0  0  0  0  0  0  0
   -0.6621    2.6514    1.7869 H   0  0  0  0  0  0  0  0  0  0  0  0
   -1.3564    2.9009    0.1589 H   0  0  0  0  0  0  0  0  0  0  0  0
   -2.9005    3.7441    1.9497 H   0  0  0  0  0  0  0  0  0  0  0  0
   -3.6201    2.4264    1.0117 H   0  0  0  0  0  0  0  0  0  0  0  0
   -2.9783    2.1071    2.6305 H   0  0  0  0  0  0  0  0  0  0  0  0
   -5.0965   -1.2444    0.8811 H   0  0  0  0  0  0  0  0  0  0  0  0
   -4.8836   -0.3055   -0.6279 H   0  0  0  0  0  0  0  0  0  0  0  0
   -3.5763   -3.0193   -0.0976 H   0  0  0  0  0  0  0  0  0  0  0  0
   -5.0443   -2.7792   -1.0632 H   0  0  0  0  0  0  0  0  0  0  0  0
   -3.5064   -2.0889   -1.6001 H   0  0  0  0  0  0  0  0  0  0  0  0
  1  2  1  0  0  0  0
  2  3  1  0  0  0  0
  3  4  2  0  0  0  0
  4  5  2  0  0  0  0
  4  6  2  0  0  0  0
  6  7  1  0  0  0  0
  7  8  1  0  0  0  0
  4  9  1  0  0  0  0
  9 10  1  0  0  0  0
 10 11  1  0  0  0  0
 11 12  1  0  0  0  0
 12 13  2  0  0  0  0
 12 14  2  0  0  0  0
 14 15  1  0  0  0  0
 15 16  1  0  0  0  0
 12 17  2  0  0  0  0
 17 18  1  0  0  0  0
 18 19  1  0  0  0  0
  1 20  1  0  0  0  0
  1 21  1  0  0  0  0
  1 22  1  0  0  0  0
  2 23  1  0  0  0  0
  2 24  1  0  0  0  0
  7 25  1  0  0  0  0
  7 26  1  0  0  0  0
  8 27  1  0  0  0  0
  8 28  1  0  0  0  0
  8 29  1  0  0  0  0
 10 30  1  0  0  0  0
 10 31  1  0  0  0  0
 15 32  1  0  0  0  0
 15 33  1  0  0  0  0
 16 34  1  0  0  0  0
 16 35  1  0  0  0  0
 16 36  1  0  0  0  0
 18 37  1  0  0  0  0
 18 38  1  0  0  0  0
 19 39  1  0  0  0  0
 19 40  1  0  0  0  0
 19 41  1  0  0  0  0
M  END
