 xtb: 6.7.1 (edcfbbe)
          04032520463D

 27 29  0     0  0            999 V2000
   -3.9891   -0.6925   -0.0004 C   0  0  0  0  0  0  0  0  0  0  0  0
   -3.9889    0.6967   -0.0020 C   0  0  0  0  0  0  0  0  0  0  0  0
   -2.7917    1.3843   -0.0019 C   0  0  0  0  0  0  0  0  0  0  0  0
   -1.5781    0.6958   -0.0005 C   0  0  0  0  0  0  0  0  0  0  0  0
   -1.5769   -0.7032    0.0005 C   0  0  0  0  0  0  0  0  0  0  0  0
   -2.7932   -1.3840    0.0007 C   0  0  0  0  0  0  0  0  0  0  0  0
   -0.3223   -1.4750    0.0010 C   0  0  0  0  0  0  0  0  0  0  0  0
   -0.3765   -2.7184    0.0017 O   0  0  0  0  0  0  0  0  0  0  0  0
    0.9200   -0.7347    0.0003 C   0  0  0  0  0  0  0  0  0  0  0  0
    2.1574   -1.4274   -0.0007 C   0  0  0  0  0  0  0  0  0  0  0  0
    3.3631   -0.6755   -0.0025 C   0  0  0  0  0  0  0  0  0  0  0  0
    3.3529    0.6829   -0.0020 C   0  0  0  0  0  0  0  0  0  0  0  0
    2.1325    1.3939    0.0003 C   0  0  0  0  0  0  0  0  0  0  0  0
    0.9175    0.6915    0.0005 C   0  0  0  0  0  0  0  0  0  0  0  0
   -0.3227    1.4480    0.0005 C   0  0  0  0  0  0  0  0  0  0  0  0
   -0.3394    2.6946    0.0019 O   0  0  0  0  0  0  0  0  0  0  0  0
    2.2166    2.7256    0.0015 O   0  0  0  0  0  0  0  0  0  0  0  0
    2.2345   -2.7608    0.0003 N   0  0  0  0  0  0  0  0  0  0  0  0
   -4.9227   -1.2328   -0.0000 H   0  0  0  0  0  0  0  0  0  0  0  0
   -4.9215    1.2387   -0.0031 H   0  0  0  0  0  0  0  0  0  0  0  0
   -2.7643    2.4639   -0.0031 H   0  0  0  0  0  0  0  0  0  0  0  0
   -2.7699   -2.4637    0.0015 H   0  0  0  0  0  0  0  0  0  0  0  0
    4.2993   -1.2115   -0.0042 H   0  0  0  0  0  0  0  0  0  0  0  0
    4.2631    1.2606   -0.0033 H   0  0  0  0  0  0  0  0  0  0  0  0
    1.2970    3.1028    0.0024 H   0  0  0  0  0  0  0  0  0  0  0  0
    1.3701   -3.2897    0.0012 H   0  0  0  0  0  0  0  0  0  0  0  0
    3.1322   -3.2126   -0.0007 H   0  0  0  0  0  0  0  0  0  0  0  0
  1  2  4  0  0  0  0
  2  3  4  0  0  0  0
  3  4  4  0  0  0  0
  4  5  4  0  0  0  0
  1  6  4  0  0  0  0
  5  6  4  0  0  0  0
  5  7  1  0  0  0  0
  7  8  2  0  0  0  0
  7  9  1  0  0  0  0
  9 10  4  0  0  0  0
 10 11  4  0  0  0  0
 11 12  2  0  0  0  0
 12 13  4  0  0  0  0
  9 14  4  0  0  0  0
 13 14  4  0  0  0  0
  4 15  1  0  0  0  0
 14 15  1  0  0  0  0
 15 16  2  0  0  0  0
 13 17  1  0  0  0  0
 10 18  4  0  0  0  0
  1 19  1  0  0  0  0
  2 20  1  0  0  0  0
  3 21  1  0  0  0  0
  6 22  1  0  0  0  0
 11 23  1  0  0  0  0
 12 24  1  0  0  0  0
 17 25  1  0  0  0  0
 18 26  1  0  0  0  0
 18 27  1  0  0  0  0
M  END
