 xtb: 6.7.1 (edcfbbe)
          04092505213D

 41 40  0     0  0            999 V2000
    4.7117   -2.2028   -0.0293 C   0  0  0  0  0  0  0  0  0  0  0  0
    4.4793   -0.7540    0.3484 C   0  0  0  0  0  0  0  0  0  0  0  0
    3.8059   -0.0639   -0.7394 O   0  0  0  0  0  0  0  0  0  0  0  0
    2.3285    0.4647   -0.6444 P   0  0  0  0  0  0  0  0  0  0  0  0
    1.7446    1.2526   -2.3334 S   0  0  0  0  0  0  0  0  0  0  0  0
    2.4372    1.4413    0.6098 O   0  0  0  0  0  0  0  0  0  0  0  0
    1.3536    2.2770    1.0509 C   0  0  0  0  0  0  0  0  0  0  0  0
    1.9106    3.2527    2.0666 C   0  0  0  0  0  0  0  0  0  0  0  0
    1.1872   -1.1744    0.0990 S   0  0  0  0  0  0  0  0  0  0  0  0
    0.0386   -1.4325   -1.2946 C   0  0  0  0  0  0  0  0  0  0  0  0
   -1.5962   -1.9134   -0.7189 S   0  0  0  0  0  0  0  0  0  0  0  0
   -2.1124   -0.0717    0.2299 P   0  0  0  0  0  0  0  0  0  0  0  0
   -1.6199    1.5651   -0.7275 S   0  0  0  0  0  0  0  0  0  0  0  0
   -1.4154   -0.0696    1.6442 O   0  0  0  0  0  0  0  0  0  0  0  0
   -1.5915   -1.1251    2.6242 C   0  0  0  0  0  0  0  0  0  0  0  0
   -2.5765   -0.6942    3.6910 C   0  0  0  0  0  0  0  0  0  0  0  0
   -3.6364   -0.2986    0.6096 O   0  0  0  0  0  0  0  0  0  0  0  0
   -4.6577   -0.7619   -0.2941 C   0  0  0  0  0  0  0  0  0  0  0  0
   -4.7458    0.0702   -1.5559 C   0  0  0  0  0  0  0  0  0  0  0  0
    5.2457   -2.2579   -0.9738 H   0  0  0  0  0  0  0  0  0  0  0  0
    5.3025   -2.6805    0.7457 H   0  0  0  0  0  0  0  0  0  0  0  0
    3.7642   -2.7265   -0.1282 H   0  0  0  0  0  0  0  0  0  0  0  0
    5.4206   -0.2190    0.4817 H   0  0  0  0  0  0  0  0  0  0  0  0
    3.8769   -0.6691    1.2554 H   0  0  0  0  0  0  0  0  0  0  0  0
    0.9283    2.7926    0.1833 H   0  0  0  0  0  0  0  0  0  0  0  0
    0.5758    1.6424    1.4880 H   0  0  0  0  0  0  0  0  0  0  0  0
    2.6841    3.8624    1.6082 H   0  0  0  0  0  0  0  0  0  0  0  0
    1.1085    3.8936    2.4174 H   0  0  0  0  0  0  0  0  0  0  0  0
    2.3367    2.7116    2.9063 H   0  0  0  0  0  0  0  0  0  0  0  0
    0.4006   -2.2519   -1.9105 H   0  0  0  0  0  0  0  0  0  0  0  0
   -0.0212   -0.5020   -1.8678 H   0  0  0  0  0  0  0  0  0  0  0  0
   -1.9275   -2.0319    2.1143 H   0  0  0  0  0  0  0  0  0  0  0  0
   -0.5940   -1.2878    3.0370 H   0  0  0  0  0  0  0  0  0  0  0  0
   -2.2369    0.2225    4.1650 H   0  0  0  0  0  0  0  0  0  0  0  0
   -3.5538   -0.5173    3.2499 H   0  0  0  0  0  0  0  0  0  0  0  0
   -2.6551   -1.4773    4.4384 H   0  0  0  0  0  0  0  0  0  0  0  0
   -4.4500   -1.8081   -0.5346 H   0  0  0  0  0  0  0  0  0  0  0  0
   -5.5739   -0.6893    0.2946 H   0  0  0  0  0  0  0  0  0  0  0  0
   -5.5781   -0.2758   -2.1603 H   0  0  0  0  0  0  0  0  0  0  0  0
   -4.8900    1.1198   -1.3103 H   0  0  0  0  0  0  0  0  0  0  0  0
   -3.8265   -0.0222   -2.1331 H   0  0  0  0  0  0  0  0  0  0  0  0
  1  2  1  0  0  0  0
  2  3  1  0  0  0  0
  3  4  2  0  0  0  0
  4  5  2  0  0  0  0
  4  6  2  0  0  0  0
  6  7  1  0  0  0  0
  7  8  1  0  0  0  0
  4  9  1  0  0  0  0
  9 10  1  0  0  0  0
 10 11  1  0  0  0  0
 11 12  1  0  0  0  0
 12 13  2  0  0  0  0
 12 14  2  0  0  0  0
 14 15  1  0  0  0  0
 15 16  1  0  0  0  0
 12 17  2  0  0  0  0
 17 18  1  0  0  0  0
 18 19  1  0  0  0  0
  1 20  1  0  0  0  0
  1 21  1  0  0  0  0
  1 22  1  0  0  0  0
  2 23  1  0  0  0  0
  2 24  1  0  0  0  0
  7 25  1  0  0  0  0
  7 26  1  0  0  0  0
  8 27  1  0  0  0  0
  8 28  1  0  0  0  0
  8 29  1  0  0  0  0
 10 30  1  0  0  0  0
 10 31  1  0  0  0  0
 15 32  1  0  0  0  0
 15 33  1  0  0  0  0
 16 34  1  0  0  0  0
 16 35  1  0  0  0  0
 16 36  1  0  0  0  0
 18 37  1  0  0  0  0
 18 38  1  0  0  0  0
 19 39  1  0  0  0  0
 19 40  1  0  0  0  0
 19 41  1  0  0  0  0
M  END
