 xtb: 6.7.1 (edcfbbe)
          04092505203D

 41 40  0     0  0            999 V2000
    4.1989    0.0787   -2.4008 C   0  0  0  0  0  0  0  0  0  0  0  0
    2.8008   -0.4585   -2.1771 C   0  0  0  0  0  0  0  0  0  0  0  0
    2.0781    0.3579   -1.2236 O   0  0  0  0  0  0  0  0  0  0  0  0
    2.0024    0.0941    0.3275 P   0  0  0  0  0  0  0  0  0  0  0  0
    0.9378    1.4609    1.2348 S   0  0  0  0  0  0  0  0  0  0  0  0
    3.5297    0.0571    0.7713 O   0  0  0  0  0  0  0  0  0  0  0  0
    3.9383    0.2186    2.1413 C   0  0  0  0  0  0  0  0  0  0  0  0
    3.4856   -0.9338    3.0140 C   0  0  0  0  0  0  0  0  0  0  0  0
    1.4367   -1.9461    0.5209 S   0  0  0  0  0  0  0  0  0  0  0  0
   -0.2015   -1.9089   -0.2542 C   0  0  0  0  0  0  0  0  0  0  0  0
   -1.4753   -1.0937    0.7554 S   0  0  0  0  0  0  0  0  0  0  0  0
   -2.0348    0.5107   -0.5336 P   0  0  0  0  0  0  0  0  0  0  0  0
   -1.0023    0.6554   -2.1909 S   0  0  0  0  0  0  0  0  0  0  0  0
   -2.0204    1.8460    0.2970 O   0  0  0  0  0  0  0  0  0  0  0  0
   -2.9732    2.2257    1.3185 C   0  0  0  0  0  0  0  0  0  0  0  0
   -2.9556    1.2846    2.5034 C   0  0  0  0  0  0  0  0  0  0  0  0
   -3.6039    0.3130   -0.7538 O   0  0  0  0  0  0  0  0  0  0  0  0
   -4.1594   -0.5037   -1.7979 C   0  0  0  0  0  0  0  0  0  0  0  0
   -3.8329   -1.9734   -1.6275 C   0  0  0  0  0  0  0  0  0  0  0  0
    4.7810    0.0069   -1.4859 H   0  0  0  0  0  0  0  0  0  0  0  0
    4.6796   -0.5038   -3.1806 H   0  0  0  0  0  0  0  0  0  0  0  0
    4.1525    1.1202   -2.7076 H   0  0  0  0  0  0  0  0  0  0  0  0
    2.8293   -1.4895   -1.8128 H   0  0  0  0  0  0  0  0  0  0  0  0
    2.1964   -0.3989   -3.0852 H   0  0  0  0  0  0  0  0  0  0  0  0
    5.0260    0.2787    2.0826 H   0  0  0  0  0  0  0  0  0  0  0  0
    3.5320    1.1651    2.5115 H   0  0  0  0  0  0  0  0  0  0  0  0
    3.9253   -0.8300    4.0006 H   0  0  0  0  0  0  0  0  0  0  0  0
    2.4007   -0.9235    3.1093 H   0  0  0  0  0  0  0  0  0  0  0  0
    3.7911   -1.8820    2.5785 H   0  0  0  0  0  0  0  0  0  0  0  0
   -0.4835   -2.9518   -0.3731 H   0  0  0  0  0  0  0  0  0  0  0  0
   -0.1441   -1.3920   -1.2173 H   0  0  0  0  0  0  0  0  0  0  0  0
   -2.6428    3.2272    1.5988 H   0  0  0  0  0  0  0  0  0  0  0  0
   -3.9638    2.2691    0.8607 H   0  0  0  0  0  0  0  0  0  0  0  0
   -1.9412    1.1870    2.8845 H   0  0  0  0  0  0  0  0  0  0  0  0
   -3.5951    1.6839    3.2843 H   0  0  0  0  0  0  0  0  0  0  0  0
   -3.3202    0.3002    2.2131 H   0  0  0  0  0  0  0  0  0  0  0  0
   -5.2322   -0.3191   -1.7237 H   0  0  0  0  0  0  0  0  0  0  0  0
   -3.7838   -0.1358   -2.7578 H   0  0  0  0  0  0  0  0  0  0  0  0
   -2.7706   -2.1392   -1.7988 H   0  0  0  0  0  0  0  0  0  0  0  0
   -4.0879   -2.3059   -0.6245 H   0  0  0  0  0  0  0  0  0  0  0  0
   -4.3986   -2.5488   -2.3532 H   0  0  0  0  0  0  0  0  0  0  0  0
  1  2  1  0  0  0  0
  2  3  1  0  0  0  0
  3  4  2  0  0  0  0
  4  5  2  0  0  0  0
  4  6  2  0  0  0  0
  6  7  1  0  0  0  0
  7  8  1  0  0  0  0
  4  9  1  0  0  0  0
  9 10  1  0  0  0  0
 10 11  1  0  0  0  0
 11 12  1  0  0  0  0
 12 13  2  0  0  0  0
 12 14  2  0  0  0  0
 14 15  1  0  0  0  0
 15 16  1  0  0  0  0
 12 17  2  0  0  0  0
 17 18  1  0  0  0  0
 18 19  1  0  0  0  0
  1 20  1  0  0  0  0
  1 21  1  0  0  0  0
  1 22  1  0  0  0  0
  2 23  1  0  0  0  0
  2 24  1  0  0  0  0
  7 25  1  0  0  0  0
  7 26  1  0  0  0  0
  8 27  1  0  0  0  0
  8 28  1  0  0  0  0
  8 29  1  0  0  0  0
 10 30  1  0  0  0  0
 10 31  1  0  0  0  0
 15 32  1  0  0  0  0
 15 33  1  0  0  0  0
 16 34  1  0  0  0  0
 16 35  1  0  0  0  0
 16 36  1  0  0  0  0
 18 37  1  0  0  0  0
 18 38  1  0  0  0  0
 19 39  1  0  0  0  0
 19 40  1  0  0  0  0
 19 41  1  0  0  0  0
M  END
