 xtb: 6.7.1 (edcfbbe)
          04092507313D

 38 37  0     0  0            999 V2000
    5.1270   -2.9806   -0.9087 C   0  0  0  0  0  0  0  0  0  0  0  0
    4.5261   -1.8839   -0.0434 C   0  0  0  0  0  0  0  0  0  0  0  0
    3.0870   -1.9126   -0.0930 O   0  0  0  0  0  0  0  0  0  0  0  0
    2.4840   -1.2834   -1.0786 C   0  0  0  0  0  0  0  0  0  0  0  0
    3.0484   -0.6922   -1.9747 O   0  0  0  0  0  0  0  0  0  0  0  0
    0.9739   -1.4146   -0.9818 C   0  0  0  0  0  0  0  0  0  0  0  0
    0.3568   -0.0599   -1.3040 C   0  0  0  0  0  0  0  0  0  0  0  0
    0.7128    0.2603   -2.2919 H   0  0  0  0  0  0  0  0  0  0  0  0
    0.8345    1.0005   -0.3290 C   0  0  0  0  0  0  0  0  0  0  0  0
    1.9095    0.9292    0.2203 O   0  0  0  0  0  0  0  0  0  0  0  0
    0.0076    2.0248   -0.2488 O   0  0  0  0  0  0  0  0  0  0  0  0
    0.4362    3.1872    0.4941 C   0  0  0  0  0  0  0  0  0  0  0  0
    0.2199    3.0333    1.9891 C   0  0  0  0  0  0  0  0  0  0  0  0
   -1.4498   -0.1075   -1.4675 S   0  0  0  0  0  0  0  0  0  0  0  0
   -2.0525    0.1049    0.5615 P   0  0  0  0  0  0  0  0  0  0  0  0
   -0.7848   -0.4500    1.9481 S   0  0  0  0  0  0  0  0  0  0  0  0
   -2.5892    1.5748    0.7712 O   0  0  0  0  0  0  0  0  0  0  0  0
   -3.5734    2.1623   -0.1038 C   0  0  0  0  0  0  0  0  0  0  0  0
   -3.4331   -0.7038    0.5659 O   0  0  0  0  0  0  0  0  0  0  0  0
   -3.4606   -2.1312    0.4538 C   0  0  0  0  0  0  0  0  0  0  0  0
    4.7366   -3.9489   -0.6081 H   0  0  0  0  0  0  0  0  0  0  0  0
    4.8828   -2.8062   -1.9540 H   0  0  0  0  0  0  0  0  0  0  0  0
    6.2057   -2.9764   -0.7927 H   0  0  0  0  0  0  0  0  0  0  0  0
    4.8616   -0.8964   -0.3732 H   0  0  0  0  0  0  0  0  0  0  0  0
    4.7621   -2.0305    1.0106 H   0  0  0  0  0  0  0  0  0  0  0  0
    0.7139   -1.7473    0.0238 H   0  0  0  0  0  0  0  0  0  0  0  0
    0.6400   -2.1513   -1.7140 H   0  0  0  0  0  0  0  0  0  0  0  0
    1.4956    3.3499    0.2759 H   0  0  0  0  0  0  0  0  0  0  0  0
   -0.1699    3.9953    0.0843 H   0  0  0  0  0  0  0  0  0  0  0  0
    0.8259    2.2162    2.3757 H   0  0  0  0  0  0  0  0  0  0  0  0
    0.5090    3.9535    2.4856 H   0  0  0  0  0  0  0  0  0  0  0  0
   -0.8246    2.8196    2.2024 H   0  0  0  0  0  0  0  0  0  0  0  0
   -3.2086    2.1524   -1.1307 H   0  0  0  0  0  0  0  0  0  0  0  0
   -3.6981    3.1815    0.2519 H   0  0  0  0  0  0  0  0  0  0  0  0
   -4.5082    1.6102   -0.0329 H   0  0  0  0  0  0  0  0  0  0  0  0
   -3.2183   -2.4266   -0.5666 H   0  0  0  0  0  0  0  0  0  0  0  0
   -4.4760   -2.4249    0.7074 H   0  0  0  0  0  0  0  0  0  0  0  0
   -2.7505   -2.5765    1.1522 H   0  0  0  0  0  0  0  0  0  0  0  0
  1  2  1  0  0  0  0
  2  3  1  0  0  0  0
  3  4  1  0  0  0  0
  4  5  2  0  0  0  0
  4  6  1  0  0  0  0
  6  7  1  0  0  0  0
  7  8  1  0  0  0  0
  7  9  1  0  0  0  0
  9 10  2  0  0  0  0
  9 11  1  0  0  0  0
 11 12  1  0  0  0  0
 12 13  1  0  0  0  0
  7 14  1  0  0  0  0
 14 15  1  0  0  0  0
 15 16  2  0  0  0  0
 15 17  2  0  0  0  0
 17 18  1  0  0  0  0
 15 19  1  0  0  0  0
 19 20  1  0  0  0  0
  1 21  1  0  0  0  0
  1 22  1  0  0  0  0
  1 23  1  0  0  0  0
  2 24  1  0  0  0  0
  2 25  1  0  0  0  0
  6 26  1  0  0  0  0
  6 27  1  0  0  0  0
 12 28  1  0  0  0  0
 12 29  1  0  0  0  0
 13 30  1  0  0  0  0
 13 31  1  0  0  0  0
 13 32  1  0  0  0  0
 18 33  1  0  0  0  0
 18 34  1  0  0  0  0
 18 35  1  0  0  0  0
 20 36  1  0  0  0  0
 20 37  1  0  0  0  0
 20 38  1  0  0  0  0
M  END
