 xtb: 6.7.1 (edcfbbe)
          04032519423D

 20 20  0     0  0            999 V2000
    0.8495    1.2794   -0.9993 C   0  0  0  0  0  0  0  0  0  0  0  0
    1.4404    0.2963    0.0099 C   0  0  0  0  0  0  0  0  0  0  0  0
    2.4516    0.0412   -0.3272 H   0  0  0  0  0  0  0  0  0  0  0  0
    0.6195   -1.0122    0.0252 C   0  0  0  0  0  0  0  0  0  0  0  0
    0.5809   -1.3907    1.0590 H   0  0  0  0  0  0  0  0  0  0  0  0
   -0.8322   -0.7709   -0.4459 C   0  0  0  0  0  0  0  0  0  0  0  0
   -0.8796   -0.8974   -1.5328 H   0  0  0  0  0  0  0  0  0  0  0  0
   -1.2787    0.6601   -0.0895 C   0  0  0  0  0  0  0  0  0  0  0  0
   -2.3129    0.8149   -0.4256 H   0  0  0  0  0  0  0  0  0  0  0  0
   -0.5054    1.6327   -0.7284 O   0  0  0  0  0  0  0  0  0  0  0  0
   -1.3061    0.8251    1.3009 O   0  0  0  0  0  0  0  0  0  0  0  0
   -1.7156   -1.7119    0.1103 O   0  0  0  0  0  0  0  0  0  0  0  0
    1.2887   -1.9357   -0.7996 O   0  0  0  0  0  0  0  0  0  0  0  0
    1.4697    0.9140    1.2795 O   0  0  0  0  0  0  0  0  0  0  0  0
    0.9184    0.8362   -1.9994 H   0  0  0  0  0  0  0  0  0  0  0  0
    1.4000    2.2209   -0.9737 H   0  0  0  0  0  0  0  0  0  0  0  0
   -0.4022    1.0487    1.6034 H   0  0  0  0  0  0  0  0  0  0  0  0
   -1.9678   -1.4088    0.9976 H   0  0  0  0  0  0  0  0  0  0  0  0
    0.7795   -2.7583   -0.8367 H   0  0  0  0  0  0  0  0  0  0  0  0
    2.1180    0.4774    1.8496 H   0  0  0  0  0  0  0  0  0  0  0  0
  1  2  1  0  0  0  0
  2  3  1  0  0  0  0
  2  4  1  0  0  0  0
  4  5  1  0  0  0  0
  4  6  1  0  0  0  0
  6  7  1  0  0  0  0
  6  8  1  0  0  0  0
  8  9  1  0  0  0  0
  1 10  1  0  0  0  0
  8 10  1  0  0  0  0
  8 11  1  0  0  0  0
  6 12  1  0  0  0  0
  4 13  1  0  0  0  0
  2 14  1  0  0  0  0
  1 15  1  0  0  0  0
  1 16  1  0  0  0  0
 11 17  1  0  0  0  0
 12 18  1  0  0  0  0
 13 19  1  0  0  0  0
 14 20  1  0  0  0  0
M  END
