 xtb: 6.7.1 (edcfbbe)
          04092505203D

 41 40  0     0  0            999 V2000
    3.3534   -1.2591   -2.1603 C   0  0  0  0  0  0  0  0  0  0  0  0
    1.8763   -0.9355   -2.1363 C   0  0  0  0  0  0  0  0  0  0  0  0
    1.5468    0.1404   -1.2230 O   0  0  0  0  0  0  0  0  0  0  0  0
    1.8825    0.2280    0.3129 P   0  0  0  0  0  0  0  0  0  0  0  0
    0.8524    1.6265    1.2138 S   0  0  0  0  0  0  0  0  0  0  0  0
    3.4522    0.4639    0.3265 O   0  0  0  0  0  0  0  0  0  0  0  0
    4.1488    0.9950    1.4674 C   0  0  0  0  0  0  0  0  0  0  0  0
    4.1383    0.0421    2.6453 C   0  0  0  0  0  0  0  0  0  0  0  0
    1.6189   -1.7309    1.0905 S   0  0  0  0  0  0  0  0  0  0  0  0
   -0.1681   -1.6249    1.3379 C   0  0  0  0  0  0  0  0  0  0  0  0
   -1.1187   -1.7512   -0.2185 S   0  0  0  0  0  0  0  0  0  0  0  0
   -2.0332    0.1368   -0.4775 P   0  0  0  0  0  0  0  0  0  0  0  0
   -1.2942    1.4961   -1.6922 S   0  0  0  0  0  0  0  0  0  0  0  0
   -2.2498    0.5323    1.0378 O   0  0  0  0  0  0  0  0  0  0  0  0
   -2.7450    1.8408    1.4022 C   0  0  0  0  0  0  0  0  0  0  0  0
   -2.4678    2.0480    2.8757 C   0  0  0  0  0  0  0  0  0  0  0  0
   -3.5199   -0.2627   -0.9020 O   0  0  0  0  0  0  0  0  0  0  0  0
   -3.9025   -0.4281   -2.2748 C   0  0  0  0  0  0  0  0  0  0  0  0
   -3.2461   -1.6470   -2.8902 C   0  0  0  0  0  0  0  0  0  0  0  0
    3.5385   -1.9889   -2.9425 H   0  0  0  0  0  0  0  0  0  0  0  0
    3.9323   -0.3611   -2.3603 H   0  0  0  0  0  0  0  0  0  0  0  0
    3.6648   -1.6755   -1.2045 H   0  0  0  0  0  0  0  0  0  0  0  0
    1.2861   -1.8134   -1.8554 H   0  0  0  0  0  0  0  0  0  0  0  0
    1.5266   -0.5518   -3.0965 H   0  0  0  0  0  0  0  0  0  0  0  0
    5.1600    1.1653    1.0950 H   0  0  0  0  0  0  0  0  0  0  0  0
    3.6882    1.9498    1.7404 H   0  0  0  0  0  0  0  0  0  0  0  0
    4.7894    0.4298    3.4222 H   0  0  0  0  0  0  0  0  0  0  0  0
    3.1293   -0.0474    3.0441 H   0  0  0  0  0  0  0  0  0  0  0  0
    4.4851   -0.9419    2.3407 H   0  0  0  0  0  0  0  0  0  0  0  0
   -0.4135   -0.6839    1.8293 H   0  0  0  0  0  0  0  0  0  0  0  0
   -0.4477   -2.4809    1.9456 H   0  0  0  0  0  0  0  0  0  0  0  0
   -2.2304    2.5894    0.7898 H   0  0  0  0  0  0  0  0  0  0  0  0
   -3.8145    1.8665    1.1805 H   0  0  0  0  0  0  0  0  0  0  0  0
   -1.3947    2.0455    3.0517 H   0  0  0  0  0  0  0  0  0  0  0  0
   -2.8755    3.0061    3.1803 H   0  0  0  0  0  0  0  0  0  0  0  0
   -2.9296    1.2548    3.4563 H   0  0  0  0  0  0  0  0  0  0  0  0
   -4.9883   -0.5236   -2.2389 H   0  0  0  0  0  0  0  0  0  0  0  0
   -3.6233    0.4785   -2.8222 H   0  0  0  0  0  0  0  0  0  0  0  0
   -2.1642   -1.5076   -2.9046 H   0  0  0  0  0  0  0  0  0  0  0  0
   -3.4745   -2.5360   -2.3081 H   0  0  0  0  0  0  0  0  0  0  0  0
   -3.5996   -1.7764   -3.9078 H   0  0  0  0  0  0  0  0  0  0  0  0
  1  2  1  0  0  0  0
  2  3  1  0  0  0  0
  3  4  2  0  0  0  0
  4  5  2  0  0  0  0
  4  6  2  0  0  0  0
  6  7  1  0  0  0  0
  7  8  1  0  0  0  0
  4  9  1  0  0  0  0
  9 10  1  0  0  0  0
 10 11  1  0  0  0  0
 11 12  1  0  0  0  0
 12 13  2  0  0  0  0
 12 14  2  0  0  0  0
 14 15  1  0  0  0  0
 15 16  1  0  0  0  0
 12 17  2  0  0  0  0
 17 18  1  0  0  0  0
 18 19  1  0  0  0  0
  1 20  1  0  0  0  0
  1 21  1  0  0  0  0
  1 22  1  0  0  0  0
  2 23  1  0  0  0  0
  2 24  1  0  0  0  0
  7 25  1  0  0  0  0
  7 26  1  0  0  0  0
  8 27  1  0  0  0  0
  8 28  1  0  0  0  0
  8 29  1  0  0  0  0
 10 30  1  0  0  0  0
 10 31  1  0  0  0  0
 15 32  1  0  0  0  0
 15 33  1  0  0  0  0
 16 34  1  0  0  0  0
 16 35  1  0  0  0  0
 16 36  1  0  0  0  0
 18 37  1  0  0  0  0
 18 38  1  0  0  0  0
 19 39  1  0  0  0  0
 19 40  1  0  0  0  0
 19 41  1  0  0  0  0
M  END
