 xtb: 6.7.1 (edcfbbe)
          04092507313D

 38 37  0     0  0            999 V2000
    3.6201   -4.0117   -2.3546 C   0  0  0  0  0  0  0  0  0  0  0  0
    3.3428   -3.9195   -0.8626 C   0  0  0  0  0  0  0  0  0  0  0  0
    3.3341   -2.5474   -0.4214 O   0  0  0  0  0  0  0  0  0  0  0  0
    2.2125   -1.8627   -0.5226 C   0  0  0  0  0  0  0  0  0  0  0  0
    1.1667   -2.3105   -0.9401 O   0  0  0  0  0  0  0  0  0  0  0  0
    2.3929   -0.4406   -0.0304 C   0  0  0  0  0  0  0  0  0  0  0  0
    1.0753    0.3107   -0.0907 C   0  0  0  0  0  0  0  0  0  0  0  0
    0.5937    0.1239   -1.0634 H   0  0  0  0  0  0  0  0  0  0  0  0
    1.2188    1.8155    0.0236 C   0  0  0  0  0  0  0  0  0  0  0  0
    2.2266    2.4128   -0.2773 O   0  0  0  0  0  0  0  0  0  0  0  0
    0.1032    2.3753    0.4412 O   0  0  0  0  0  0  0  0  0  0  0  0
    0.0490    3.8155    0.5230 C   0  0  0  0  0  0  0  0  0  0  0  0
   -0.9836    4.2035    1.5622 C   0  0  0  0  0  0  0  0  0  0  0  0
   -0.0852   -0.3145    1.1669 S   0  0  0  0  0  0  0  0  0  0  0  0
   -1.8868    0.2012    0.1626 P   0  0  0  0  0  0  0  0  0  0  0  0
   -1.7708    0.7632   -1.7091 S   0  0  0  0  0  0  0  0  0  0  0  0
   -2.7910   -1.1024    0.3991 O   0  0  0  0  0  0  0  0  0  0  0  0
   -2.4963   -2.3198   -0.2928 C   0  0  0  0  0  0  0  0  0  0  0  0
   -2.6413    1.2495    1.0676 O   0  0  0  0  0  0  0  0  0  0  0  0
   -2.8958    0.9994    2.4651 C   0  0  0  0  0  0  0  0  0  0  0  0
    4.5546   -3.5115   -2.5936 H   0  0  0  0  0  0  0  0  0  0  0  0
    3.6885   -5.0553   -2.6432 H   0  0  0  0  0  0  0  0  0  0  0  0
    2.8143   -3.5431   -2.9154 H   0  0  0  0  0  0  0  0  0  0  0  0
    4.1378   -4.3856   -0.2807 H   0  0  0  0  0  0  0  0  0  0  0  0
    2.3761   -4.3698   -0.6203 H   0  0  0  0  0  0  0  0  0  0  0  0
    3.1268    0.0682   -0.6596 H   0  0  0  0  0  0  0  0  0  0  0  0
    2.7873   -0.4682    0.9864 H   0  0  0  0  0  0  0  0  0  0  0  0
    1.0500    4.1771    0.7764 H   0  0  0  0  0  0  0  0  0  0  0  0
   -0.2232    4.1867   -0.4695 H   0  0  0  0  0  0  0  0  0  0  0  0
   -1.0400    5.2854    1.6185 H   0  0  0  0  0  0  0  0  0  0  0  0
   -1.9542    3.8071    1.2781 H   0  0  0  0  0  0  0  0  0  0  0  0
   -0.7070    3.8066    2.5347 H   0  0  0  0  0  0  0  0  0  0  0  0
   -2.6439   -2.1836   -1.3648 H   0  0  0  0  0  0  0  0  0  0  0  0
   -3.1916   -3.0565    0.1003 H   0  0  0  0  0  0  0  0  0  0  0  0
   -1.4650   -2.6257   -0.1090 H   0  0  0  0  0  0  0  0  0  0  0  0
   -1.9687    0.7219    2.9672 H   0  0  0  0  0  0  0  0  0  0  0  0
   -3.6290    0.2022    2.5689 H   0  0  0  0  0  0  0  0  0  0  0  0
   -3.2835    1.9355    2.8584 H   0  0  0  0  0  0  0  0  0  0  0  0
  1  2  1  0  0  0  0
  2  3  1  0  0  0  0
  3  4  1  0  0  0  0
  4  5  2  0  0  0  0
  4  6  1  0  0  0  0
  6  7  1  0  0  0  0
  7  8  1  0  0  0  0
  7  9  1  0  0  0  0
  9 10  2  0  0  0  0
  9 11  1  0  0  0  0
 11 12  1  0  0  0  0
 12 13  1  0  0  0  0
  7 14  1  0  0  0  0
 14 15  1  0  0  0  0
 15 16  2  0  0  0  0
 15 17  1  0  0  0  0
 17 18  1  0  0  0  0
 15 19  2  0  0  0  0
 19 20  1  0  0  0  0
  1 21  1  0  0  0  0
  1 22  1  0  0  0  0
  1 23  1  0  0  0  0
  2 24  1  0  0  0  0
  2 25  1  0  0  0  0
  6 26  1  0  0  0  0
  6 27  1  0  0  0  0
 12 28  1  0  0  0  0
 12 29  1  0  0  0  0
 13 30  1  0  0  0  0
 13 31  1  0  0  0  0
 13 32  1  0  0  0  0
 18 33  1  0  0  0  0
 18 34  1  0  0  0  0
 18 35  1  0  0  0  0
 20 36  1  0  0  0  0
 20 37  1  0  0  0  0
 20 38  1  0  0  0  0
M  END
