 xtb: 6.7.1 (edcfbbe)
          04092505203D

 41 40  0     0  0            999 V2000
    5.5560   -0.6126   -1.0308 C   0  0  0  0  0  0  0  0  0  0  0  0
    4.2878   -1.4398   -0.9892 C   0  0  0  0  0  0  0  0  0  0  0  0
    3.1873   -0.7359   -1.6180 O   0  0  0  0  0  0  0  0  0  0  0  0
    2.1334    0.1351   -0.8322 P   0  0  0  0  0  0  0  0  0  0  0  0
    0.8479    0.8859   -2.1032 S   0  0  0  0  0  0  0  0  0  0  0  0
    3.0599    1.1469   -0.0399 O   0  0  0  0  0  0  0  0  0  0  0  0
    2.6008    2.2209    0.8033 C   0  0  0  0  0  0  0  0  0  0  0  0
    2.6148    1.8045    2.2602 C   0  0  0  0  0  0  0  0  0  0  0  0
    1.3516   -1.1854    0.6450 S   0  0  0  0  0  0  0  0  0  0  0  0
   -0.0092   -1.8781   -0.3487 C   0  0  0  0  0  0  0  0  0  0  0  0
   -1.5850   -1.9087    0.5326 S   0  0  0  0  0  0  0  0  0  0  0  0
   -2.1062    0.1601    0.4066 P   0  0  0  0  0  0  0  0  0  0  0  0
   -0.8735    1.4915    1.1312 S   0  0  0  0  0  0  0  0  0  0  0  0
   -3.5782    0.1506    1.0030 O   0  0  0  0  0  0  0  0  0  0  0  0
   -3.9626   -0.4542    2.2534 C   0  0  0  0  0  0  0  0  0  0  0  0
   -3.0780   -0.0368    3.4086 C   0  0  0  0  0  0  0  0  0  0  0  0
   -2.3487    0.4568   -1.1204 O   0  0  0  0  0  0  0  0  0  0  0  0
   -3.2691   -0.2773   -1.9629 C   0  0  0  0  0  0  0  0  0  0  0  0
   -4.5846    0.4638   -2.0864 C   0  0  0  0  0  0  0  0  0  0  0  0
    6.3731   -1.1962   -0.6183 H   0  0  0  0  0  0  0  0  0  0  0  0
    5.7896   -0.3419   -2.0569 H   0  0  0  0  0  0  0  0  0  0  0  0
    5.4342    0.2970   -0.4492 H   0  0  0  0  0  0  0  0  0  0  0  0
    4.0077   -1.6879    0.0386 H   0  0  0  0  0  0  0  0  0  0  0  0
    4.3918   -2.3540   -1.5763 H   0  0  0  0  0  0  0  0  0  0  0  0
    3.3036    3.0347    0.6147 H   0  0  0  0  0  0  0  0  0  0  0  0
    1.5979    2.5275    0.4931 H   0  0  0  0  0  0  0  0  0  0  0  0
    1.8735    1.0292    2.4389 H   0  0  0  0  0  0  0  0  0  0  0  0
    3.5976    1.4330    2.5357 H   0  0  0  0  0  0  0  0  0  0  0  0
    2.3661    2.6651    2.8721 H   0  0  0  0  0  0  0  0  0  0  0  0
    0.2191   -2.9154   -0.5791 H   0  0  0  0  0  0  0  0  0  0  0  0
   -0.1055   -1.2749   -1.2561 H   0  0  0  0  0  0  0  0  0  0  0  0
   -4.9906   -0.1164    2.3962 H   0  0  0  0  0  0  0  0  0  0  0  0
   -3.9412   -1.5397    2.1229 H   0  0  0  0  0  0  0  0  0  0  0  0
   -2.0607   -0.3937    3.2511 H   0  0  0  0  0  0  0  0  0  0  0  0
   -3.0508    1.0471    3.4947 H   0  0  0  0  0  0  0  0  0  0  0  0
   -3.4634   -0.4625    4.3294 H   0  0  0  0  0  0  0  0  0  0  0  0
   -2.7584   -0.3458   -2.9260 H   0  0  0  0  0  0  0  0  0  0  0  0
   -3.4156   -1.2780   -1.5461 H   0  0  0  0  0  0  0  0  0  0  0  0
   -5.2328   -0.0754   -2.7701 H   0  0  0  0  0  0  0  0  0  0  0  0
   -5.0664    0.5402   -1.1153 H   0  0  0  0  0  0  0  0  0  0  0  0
   -4.4103    1.4654   -2.4701 H   0  0  0  0  0  0  0  0  0  0  0  0
  1  2  1  0  0  0  0
  2  3  1  0  0  0  0
  3  4  2  0  0  0  0
  4  5  2  0  0  0  0
  4  6  2  0  0  0  0
  6  7  1  0  0  0  0
  7  8  1  0  0  0  0
  4  9  1  0  0  0  0
  9 10  1  0  0  0  0
 10 11  1  0  0  0  0
 11 12  1  0  0  0  0
 12 13  2  0  0  0  0
 12 14  2  0  0  0  0
 14 15  1  0  0  0  0
 15 16  1  0  0  0  0
 12 17  2  0  0  0  0
 17 18  1  0  0  0  0
 18 19  1  0  0  0  0
  1 20  1  0  0  0  0
  1 21  1  0  0  0  0
  1 22  1  0  0  0  0
  2 23  1  0  0  0  0
  2 24  1  0  0  0  0
  7 25  1  0  0  0  0
  7 26  1  0  0  0  0
  8 27  1  0  0  0  0
  8 28  1  0  0  0  0
  8 29  1  0  0  0  0
 10 30  1  0  0  0  0
 10 31  1  0  0  0  0
 15 32  1  0  0  0  0
 15 33  1  0  0  0  0
 16 34  1  0  0  0  0
 16 35  1  0  0  0  0
 16 36  1  0  0  0  0
 18 37  1  0  0  0  0
 18 38  1  0  0  0  0
 19 39  1  0  0  0  0
 19 40  1  0  0  0  0
 19 41  1  0  0  0  0
M  END
