 xtb: 6.7.1 (edcfbbe)
          04032519503D

 22 24  0     0  0            999 V2000
    2.4082    1.1490    0.0000 C   0  0  0  0  0  0  0  0  0  0  0  0
    1.2683    1.9124    0.0000 C   0  0  0  0  0  0  0  0  0  0  0  0
    0.0000    1.2922    0.0000 C   0  0  0  0  0  0  0  0  0  0  0  0
   -1.2683    1.9124   -0.0000 C   0  0  0  0  0  0  0  0  0  0  0  0
   -2.4082    1.1490   -0.0000 C   0  0  0  0  0  0  0  0  0  0  0  0
   -2.3795   -0.2605   -0.0000 C   0  0  0  0  0  0  0  0  0  0  0  0
   -1.1667   -0.8916    0.0000 C   0  0  0  0  0  0  0  0  0  0  0  0
   -0.0000   -0.1098    0.0000 C   0  0  0  0  0  0  0  0  0  0  0  0
    1.1667   -0.8916   -0.0000 C   0  0  0  0  0  0  0  0  0  0  0  0
    2.3795   -0.2605    0.0000 C   0  0  0  0  0  0  0  0  0  0  0  0
    0.7752   -2.3427   -0.0001 C   0  0  0  0  0  0  0  0  0  0  0  0
   -0.7752   -2.3427    0.0001 C   0  0  0  0  0  0  0  0  0  0  0  0
    3.3712    1.6397    0.0001 H   0  0  0  0  0  0  0  0  0  0  0  0
    1.3331    2.9909    0.0000 H   0  0  0  0  0  0  0  0  0  0  0  0
   -1.3331    2.9909   -0.0000 H   0  0  0  0  0  0  0  0  0  0  0  0
   -3.3712    1.6397   -0.0000 H   0  0  0  0  0  0  0  0  0  0  0  0
   -3.3080   -0.8122    0.0000 H   0  0  0  0  0  0  0  0  0  0  0  0
    3.3080   -0.8122   -0.0000 H   0  0  0  0  0  0  0  0  0  0  0  0
    1.1744   -2.8491   -0.8800 H   0  0  0  0  0  0  0  0  0  0  0  0
    1.1747   -2.8494    0.8795 H   0  0  0  0  0  0  0  0  0  0  0  0
   -1.1747   -2.8494   -0.8795 H   0  0  0  0  0  0  0  0  0  0  0  0
   -1.1744   -2.8491    0.8800 H   0  0  0  0  0  0  0  0  0  0  0  0
  1  2  2  0  0  0  0
  2  3  4  0  0  0  0
  3  4  4  0  0  0  0
  4  5  2  0  0  0  0
  5  6  4  0  0  0  0
  6  7  2  0  0  0  0
  3  8  4  0  0  0  0
  7  8  4  0  0  0  0
  8  9  4  0  0  0  0
  1 10  4  0  0  0  0
  9 10  2  0  0  0  0
  9 11  1  0  0  0  0
  7 12  1  0  0  0  0
 11 12  1  0  0  0  0
  1 13  1  0  0  0  0
  2 14  1  0  0  0  0
  4 15  1  0  0  0  0
  5 16  1  0  0  0  0
  6 17  1  0  0  0  0
 10 18  1  0  0  0  0
 11 19  1  0  0  0  0
 11 20  1  0  0  0  0
 12 21  1  0  0  0  0
 12 22  1  0  0  0  0
M  END
