 xtb: 6.7.1 (edcfbbe)
          04092507313D

 38 37  0     0  0            999 V2000
    3.2612   -3.8276    0.2628 C   0  0  0  0  0  0  0  0  0  0  0  0
    3.7343   -2.9375   -0.8751 C   0  0  0  0  0  0  0  0  0  0  0  0
    2.6154   -2.3203   -1.5462 O   0  0  0  0  0  0  0  0  0  0  0  0
    2.1274   -1.2024   -1.0621 C   0  0  0  0  0  0  0  0  0  0  0  0
    2.5718   -0.6145   -0.0948 O   0  0  0  0  0  0  0  0  0  0  0  0
    0.9163   -0.7371   -1.8365 C   0  0  0  0  0  0  0  0  0  0  0  0
    0.5425    0.7012   -1.4747 C   0  0  0  0  0  0  0  0  0  0  0  0
    1.0178    1.4289   -2.1322 H   0  0  0  0  0  0  0  0  0  0  0  0
    0.8628    1.0466   -0.0347 C   0  0  0  0  0  0  0  0  0  0  0  0
    0.2169    0.5539    0.8809 O   0  0  0  0  0  0  0  0  0  0  0  0
    1.7351    1.9985    0.0933 O   0  0  0  0  0  0  0  0  0  0  0  0
    2.0838    2.4269    1.4282 C   0  0  0  0  0  0  0  0  0  0  0  0
    2.7992    3.7582    1.3200 C   0  0  0  0  0  0  0  0  0  0  0  0
   -1.2604    0.9597   -1.6107 S   0  0  0  0  0  0  0  0  0  0  0  0
   -2.0306    0.1797    0.2157 P   0  0  0  0  0  0  0  0  0  0  0  0
   -2.3770    1.2049    1.8620 S   0  0  0  0  0  0  0  0  0  0  0  0
   -3.4148   -0.0376   -0.5831 O   0  0  0  0  0  0  0  0  0  0  0  0
   -4.6325   -0.4009    0.0682 C   0  0  0  0  0  0  0  0  0  0  0  0
   -1.6178   -1.3627    0.4115 O   0  0  0  0  0  0  0  0  0  0  0  0
   -0.9047   -1.8779    1.5322 C   0  0  0  0  0  0  0  0  0  0  0  0
    4.1149   -4.3354    0.6989 H   0  0  0  0  0  0  0  0  0  0  0  0
    2.7780   -3.2300    1.0332 H   0  0  0  0  0  0  0  0  0  0  0  0
    2.5558   -4.5664   -0.1072 H   0  0  0  0  0  0  0  0  0  0  0  0
    4.2283   -3.5170   -1.6545 H   0  0  0  0  0  0  0  0  0  0  0  0
    4.3963   -2.1505   -0.5039 H   0  0  0  0  0  0  0  0  0  0  0  0
    0.0978   -1.4158   -1.5769 H   0  0  0  0  0  0  0  0  0  0  0  0
    1.0925   -0.8375   -2.9064 H   0  0  0  0  0  0  0  0  0  0  0  0
    1.1655    2.4955    2.0205 H   0  0  0  0  0  0  0  0  0  0  0  0
    2.7237    1.6515    1.8594 H   0  0  0  0  0  0  0  0  0  0  0  0
    2.1429    4.5014    0.8770 H   0  0  0  0  0  0  0  0  0  0  0  0
    3.0911    4.0861    2.3120 H   0  0  0  0  0  0  0  0  0  0  0  0
    3.6840    3.6533    0.6998 H   0  0  0  0  0  0  0  0  0  0  0  0
   -4.6442   -1.4736    0.2593 H   0  0  0  0  0  0  0  0  0  0  0  0
   -5.4301   -0.1248   -0.6171 H   0  0  0  0  0  0  0  0  0  0  0  0
   -4.7342    0.1443    1.0096 H   0  0  0  0  0  0  0  0  0  0  0  0
    0.1664   -1.8592    1.3329 H   0  0  0  0  0  0  0  0  0  0  0  0
   -1.2579   -2.8976    1.6673 H   0  0  0  0  0  0  0  0  0  0  0  0
   -1.1103   -1.2756    2.4187 H   0  0  0  0  0  0  0  0  0  0  0  0
  1  2  1  0  0  0  0
  2  3  1  0  0  0  0
  3  4  4  0  0  0  0
  4  5  2  0  0  0  0
  4  6  1  0  0  0  0
  6  7  1  0  0  0  0
  7  8  1  0  0  0  0
  7  9  1  0  0  0  0
  9 10  2  0  0  0  0
  9 11  4  0  0  0  0
 11 12  1  0  0  0  0
 12 13  1  0  0  0  0
  7 14  1  0  0  0  0
 14 15  1  0  0  0  0
 15 16  2  0  0  0  0
 15 17  1  0  0  0  0
 17 18  1  0  0  0  0
 15 19  1  0  0  0  0
 19 20  1  0  0  0  0
  1 21  1  0  0  0  0
  1 22  1  0  0  0  0
  1 23  1  0  0  0  0
  2 24  1  0  0  0  0
  2 25  1  0  0  0  0
  6 26  1  0  0  0  0
  6 27  1  0  0  0  0
 12 28  1  0  0  0  0
 12 29  1  0  0  0  0
 13 30  1  0  0  0  0
 13 31  1  0  0  0  0
 13 32  1  0  0  0  0
 18 33  1  0  0  0  0
 18 34  1  0  0  0  0
 18 35  1  0  0  0  0
 20 36  1  0  0  0  0
 20 37  1  0  0  0  0
 20 38  1  0  0  0  0
M  END
