 xtb: 6.7.1 (edcfbbe)
          04092505203D

 41 40  0     0  0            999 V2000
    2.6754   -2.9768    1.7546 C   0  0  0  0  0  0  0  0  0  0  0  0
    1.4039   -2.8407    0.9448 C   0  0  0  0  0  0  0  0  0  0  0  0
    1.1579   -1.4747    0.5466 O   0  0  0  0  0  0  0  0  0  0  0  0
    2.0921   -0.7233   -0.4884 P   0  0  0  0  0  0  0  0  0  0  0  0
    2.8011   -1.8013   -1.9614 S   0  0  0  0  0  0  0  0  0  0  0  0
    3.1937   -0.0819    0.4748 O   0  0  0  0  0  0  0  0  0  0  0  0
    4.4520    0.3950   -0.0259 C   0  0  0  0  0  0  0  0  0  0  0  0
    4.2963    1.6680   -0.8338 C   0  0  0  0  0  0  0  0  0  0  0  0
    0.8096    0.8772   -1.0131 S   0  0  0  0  0  0  0  0  0  0  0  0
    0.4512    1.5043    0.6567 C   0  0  0  0  0  0  0  0  0  0  0  0
   -0.8303    0.5709    1.5320 S   0  0  0  0  0  0  0  0  0  0  0  0
   -2.3617    0.8299    0.0782 P   0  0  0  0  0  0  0  0  0  0  0  0
   -2.4300    2.5646   -0.8179 S   0  0  0  0  0  0  0  0  0  0  0  0
   -3.6818    0.3889    0.8513 O   0  0  0  0  0  0  0  0  0  0  0  0
   -4.4820    1.3124    1.6137 C   0  0  0  0  0  0  0  0  0  0  0  0
   -3.7425    1.8630    2.8154 C   0  0  0  0  0  0  0  0  0  0  0  0
   -2.1851   -0.3647   -0.9412 O   0  0  0  0  0  0  0  0  0  0  0  0
   -2.2059   -1.7554   -0.5377 C   0  0  0  0  0  0  0  0  0  0  0  0
   -1.5157   -2.5636   -1.6169 C   0  0  0  0  0  0  0  0  0  0  0  0
    2.6640   -2.2840    2.5918 H   0  0  0  0  0  0  0  0  0  0  0  0
    2.7552   -3.9934    2.1270 H   0  0  0  0  0  0  0  0  0  0  0  0
    3.5397   -2.7621    1.1278 H   0  0  0  0  0  0  0  0  0  0  0  0
    0.5226   -3.1019    1.5323 H   0  0  0  0  0  0  0  0  0  0  0  0
    1.4515   -3.4594    0.0432 H   0  0  0  0  0  0  0  0  0  0  0  0
    5.0516    0.5566    0.8710 H   0  0  0  0  0  0  0  0  0  0  0  0
    4.9017   -0.3924   -0.6394 H   0  0  0  0  0  0  0  0  0  0  0  0
    3.7002    1.4715   -1.7251 H   0  0  0  0  0  0  0  0  0  0  0  0
    3.8033    2.4386   -0.2465 H   0  0  0  0  0  0  0  0  0  0  0  0
    5.2757    2.0224   -1.1388 H   0  0  0  0  0  0  0  0  0  0  0  0
    0.1096    2.5286    0.5129 H   0  0  0  0  0  0  0  0  0  0  0  0
    1.3474    1.4593    1.2702 H   0  0  0  0  0  0  0  0  0  0  0  0
   -4.7946    2.1238    0.9496 H   0  0  0  0  0  0  0  0  0  0  0  0
   -5.3482    0.7186    1.9091 H   0  0  0  0  0  0  0  0  0  0  0  0
   -3.3307    1.0529    3.4121 H   0  0  0  0  0  0  0  0  0  0  0  0
   -2.9294    2.5085    2.4872 H   0  0  0  0  0  0  0  0  0  0  0  0
   -4.4299    2.4449    3.4209 H   0  0  0  0  0  0  0  0  0  0  0  0
   -1.6924   -1.8473    0.4246 H   0  0  0  0  0  0  0  0  0  0  0  0
   -3.2497   -2.0523   -0.4196 H   0  0  0  0  0  0  0  0  0  0  0  0
   -1.5428   -3.6155   -1.3515 H   0  0  0  0  0  0  0  0  0  0  0  0
   -2.0166   -2.4172   -2.5695 H   0  0  0  0  0  0  0  0  0  0  0  0
   -0.4790   -2.2484   -1.7257 H   0  0  0  0  0  0  0  0  0  0  0  0
  1  2  1  0  0  0  0
  2  3  1  0  0  0  0
  3  4  2  0  0  0  0
  4  5  2  0  0  0  0
  4  6  1  0  0  0  0
  6  7  1  0  0  0  0
  7  8  1  0  0  0  0
  4  9  1  0  0  0  0
  9 10  1  0  0  0  0
 10 11  1  0  0  0  0
 11 12  1  0  0  0  0
 12 13  2  0  0  0  0
 12 14  2  0  0  0  0
 14 15  1  0  0  0  0
 15 16  1  0  0  0  0
 12 17  2  0  0  0  0
 17 18  1  0  0  0  0
 18 19  1  0  0  0  0
  1 20  1  0  0  0  0
  1 21  1  0  0  0  0
  1 22  1  0  0  0  0
  2 23  1  0  0  0  0
  2 24  1  0  0  0  0
  7 25  1  0  0  0  0
  7 26  1  0  0  0  0
  8 27  1  0  0  0  0
  8 28  1  0  0  0  0
  8 29  1  0  0  0  0
 10 30  1  0  0  0  0
 10 31  1  0  0  0  0
 15 32  1  0  0  0  0
 15 33  1  0  0  0  0
 16 34  1  0  0  0  0
 16 35  1  0  0  0  0
 16 36  1  0  0  0  0
 18 37  1  0  0  0  0
 18 38  1  0  0  0  0
 19 39  1  0  0  0  0
 19 40  1  0  0  0  0
 19 41  1  0  0  0  0
M  END
