 xtb: 6.7.1 (edcfbbe)
          04092505213D

 41 40  0     0  0            999 V2000
    4.2545   -1.6087   -1.2601 C   0  0  0  0  0  0  0  0  0  0  0  0
    4.6672   -0.1937   -0.9091 C   0  0  0  0  0  0  0  0  0  0  0  0
    3.7692    0.4276    0.0252 O   0  0  0  0  0  0  0  0  0  0  0  0
    2.2375    0.7229   -0.3087 P   0  0  0  0  0  0  0  0  0  0  0  0
    1.9183    1.2926   -2.1561 S   0  0  0  0  0  0  0  0  0  0  0  0
    1.8986    1.8339    0.7540 O   0  0  0  0  0  0  0  0  0  0  0  0
    2.4869    1.9419    2.0749 C   0  0  0  0  0  0  0  0  0  0  0  0
    2.2642    0.7048    2.9182 C   0  0  0  0  0  0  0  0  0  0  0  0
    1.2166   -1.0467    0.3052 S   0  0  0  0  0  0  0  0  0  0  0  0
    0.2520   -1.4104   -1.1968 C   0  0  0  0  0  0  0  0  0  0  0  0
   -1.4277   -1.9477   -0.8217 S   0  0  0  0  0  0  0  0  0  0  0  0
   -2.2937   -0.1184   -0.1324 P   0  0  0  0  0  0  0  0  0  0  0  0
   -1.1726    1.4860   -0.2329 S   0  0  0  0  0  0  0  0  0  0  0  0
   -2.8734   -0.5170    1.2959 O   0  0  0  0  0  0  0  0  0  0  0  0
   -2.0311   -0.8362    2.4209 C   0  0  0  0  0  0  0  0  0  0  0  0
   -1.7546    0.4003    3.2538 C   0  0  0  0  0  0  0  0  0  0  0  0
   -3.6007    0.0634   -0.9855 O   0  0  0  0  0  0  0  0  0  0  0  0
   -4.6140   -0.9664   -1.1264 C   0  0  0  0  0  0  0  0  0  0  0  0
   -5.7348   -0.7615   -0.1285 C   0  0  0  0  0  0  0  0  0  0  0  0
    4.0959   -2.1955   -0.3589 H   0  0  0  0  0  0  0  0  0  0  0  0
    3.3332   -1.5881   -1.8410 H   0  0  0  0  0  0  0  0  0  0  0  0
    5.0337   -2.0691   -1.8590 H   0  0  0  0  0  0  0  0  0  0  0  0
    4.7088    0.4260   -1.8100 H   0  0  0  0  0  0  0  0  0  0  0  0
    5.6294   -0.1700   -0.3954 H   0  0  0  0  0  0  0  0  0  0  0  0
    3.5525    2.1477    1.9541 H   0  0  0  0  0  0  0  0  0  0  0  0
    1.9836    2.8139    2.4954 H   0  0  0  0  0  0  0  0  0  0  0  0
    2.6623    0.8789    3.9129 H   0  0  0  0  0  0  0  0  0  0  0  0
    1.2032    0.4821    2.9896 H   0  0  0  0  0  0  0  0  0  0  0  0
    2.7728   -0.1500    2.4752 H   0  0  0  0  0  0  0  0  0  0  0  0
    0.7109   -2.2458   -1.7201 H   0  0  0  0  0  0  0  0  0  0  0  0
    0.2363   -0.5119   -1.8194 H   0  0  0  0  0  0  0  0  0  0  0  0
   -2.5991   -1.5768    2.9868 H   0  0  0  0  0  0  0  0  0  0  0  0
   -1.1001   -1.2881    2.0633 H   0  0  0  0  0  0  0  0  0  0  0  0
   -1.2163    1.1383    2.6615 H   0  0  0  0  0  0  0  0  0  0  0  0
   -2.6891    0.8439    3.5858 H   0  0  0  0  0  0  0  0  0  0  0  0
   -1.1597    0.1263    4.1195 H   0  0  0  0  0  0  0  0  0  0  0  0
   -4.9691   -0.8553   -2.1524 H   0  0  0  0  0  0  0  0  0  0  0  0
   -4.1423   -1.9451   -1.0027 H   0  0  0  0  0  0  0  0  0  0  0  0
   -6.1594    0.2318   -0.2458 H   0  0  0  0  0  0  0  0  0  0  0  0
   -6.5061   -1.5046   -0.3055 H   0  0  0  0  0  0  0  0  0  0  0  0
   -5.3611   -0.8644    0.8862 H   0  0  0  0  0  0  0  0  0  0  0  0
  1  2  1  0  0  0  0
  2  3  1  0  0  0  0
  3  4  2  0  0  0  0
  4  5  2  0  0  0  0
  4  6  2  0  0  0  0
  6  7  1  0  0  0  0
  7  8  1  0  0  0  0
  4  9  1  0  0  0  0
  9 10  1  0  0  0  0
 10 11  1  0  0  0  0
 11 12  1  0  0  0  0
 12 13  2  0  0  0  0
 12 14  2  0  0  0  0
 14 15  1  0  0  0  0
 15 16  1  0  0  0  0
 12 17  2  0  0  0  0
 17 18  1  0  0  0  0
 18 19  1  0  0  0  0
  1 20  1  0  0  0  0
  1 21  1  0  0  0  0
  1 22  1  0  0  0  0
  2 23  1  0  0  0  0
  2 24  1  0  0  0  0
  7 25  1  0  0  0  0
  7 26  1  0  0  0  0
  8 27  1  0  0  0  0
  8 28  1  0  0  0  0
  8 29  1  0  0  0  0
 10 30  1  0  0  0  0
 10 31  1  0  0  0  0
 15 32  1  0  0  0  0
 15 33  1  0  0  0  0
 16 34  1  0  0  0  0
 16 35  1  0  0  0  0
 16 36  1  0  0  0  0
 18 37  1  0  0  0  0
 18 38  1  0  0  0  0
 19 39  1  0  0  0  0
 19 40  1  0  0  0  0
 19 41  1  0  0  0  0
M  END
