 xtb: 6.7.1 (edcfbbe)
          04092507313D

 38 37  0     0  0            999 V2000
    3.3047   -1.4015    1.6908 C   0  0  0  0  0  0  0  0  0  0  0  0
    3.0573   -2.1267    0.3785 C   0  0  0  0  0  0  0  0  0  0  0  0
    2.7305   -1.1819   -0.6592 O   0  0  0  0  0  0  0  0  0  0  0  0
    1.4840   -1.0284   -1.0282 C   0  0  0  0  0  0  0  0  0  0  0  0
    0.5435   -1.6609   -0.5766 O   0  0  0  0  0  0  0  0  0  0  0  0
    1.3290    0.0150   -2.1103 C   0  0  0  0  0  0  0  0  0  0  0  0
    0.1723    0.9577   -1.7975 C   0  0  0  0  0  0  0  0  0  0  0  0
    0.0303    1.6590   -2.6261 H   0  0  0  0  0  0  0  0  0  0  0  0
    0.3468    1.7778   -0.5280 C   0  0  0  0  0  0  0  0  0  0  0  0
   -0.5828    2.3458    0.0074 O   0  0  0  0  0  0  0  0  0  0  0  0
    1.5918    1.8249   -0.1349 O   0  0  0  0  0  0  0  0  0  0  0  0
    1.9029    2.5729    1.0589 C   0  0  0  0  0  0  0  0  0  0  0  0
    3.3942    2.8402    1.0675 C   0  0  0  0  0  0  0  0  0  0  0  0
   -1.4512    0.1195   -1.6975 S   0  0  0  0  0  0  0  0  0  0  0  0
   -1.5959   -0.5573    0.3229 P   0  0  0  0  0  0  0  0  0  0  0  0
   -0.3469   -0.1958    1.7881 S   0  0  0  0  0  0  0  0  0  0  0  0
   -3.0682    0.0076    0.6791 O   0  0  0  0  0  0  0  0  0  0  0  0
   -3.3358    1.3760    0.9747 C   0  0  0  0  0  0  0  0  0  0  0  0
   -1.9633   -2.0919    0.2555 O   0  0  0  0  0  0  0  0  0  0  0  0
   -2.9307   -2.6325   -0.6617 C   0  0  0  0  0  0  0  0  0  0  0  0
    2.3958   -0.8993    2.0186 H   0  0  0  0  0  0  0  0  0  0  0  0
    3.5972   -2.1214    2.4478 H   0  0  0  0  0  0  0  0  0  0  0  0
    4.0948   -0.6664    1.5697 H   0  0  0  0  0  0  0  0  0  0  0  0
    2.2342   -2.8399    0.4776 H   0  0  0  0  0  0  0  0  0  0  0  0
    3.9591   -2.6301    0.0270 H   0  0  0  0  0  0  0  0  0  0  0  0
    1.1131   -0.5004   -3.0483 H   0  0  0  0  0  0  0  0  0  0  0  0
    2.2590    0.5748   -2.1997 H   0  0  0  0  0  0  0  0  0  0  0  0
    1.3147    3.4953    1.0507 H   0  0  0  0  0  0  0  0  0  0  0  0
    1.5872    1.9676    1.9152 H   0  0  0  0  0  0  0  0  0  0  0  0
    3.9367    1.9012    1.0199 H   0  0  0  0  0  0  0  0  0  0  0  0
    3.6722    3.4534    0.2155 H   0  0  0  0  0  0  0  0  0  0  0  0
    3.6558    3.3584    1.9836 H   0  0  0  0  0  0  0  0  0  0  0  0
   -4.3525    1.3990    1.3585 H   0  0  0  0  0  0  0  0  0  0  0  0
   -3.2457    1.9810    0.0724 H   0  0  0  0  0  0  0  0  0  0  0  0
   -2.6328    1.7461    1.7228 H   0  0  0  0  0  0  0  0  0  0  0  0
   -2.6076   -2.4582   -1.6880 H   0  0  0  0  0  0  0  0  0  0  0  0
   -3.9040   -2.1751   -0.4906 H   0  0  0  0  0  0  0  0  0  0  0  0
   -2.9581   -3.6969   -0.4433 H   0  0  0  0  0  0  0  0  0  0  0  0
  1  2  1  0  0  0  0
  2  3  1  0  0  0  0
  3  4  4  0  0  0  0
  4  5  2  0  0  0  0
  4  6  1  0  0  0  0
  6  7  1  0  0  0  0
  7  8  1  0  0  0  0
  7  9  1  0  0  0  0
  9 10  2  0  0  0  0
  9 11  4  0  0  0  0
 11 12  1  0  0  0  0
 12 13  1  0  0  0  0
  7 14  1  0  0  0  0
 14 15  1  0  0  0  0
 15 16  2  0  0  0  0
 15 17  1  0  0  0  0
 17 18  1  0  0  0  0
 15 19  2  0  0  0  0
 19 20  1  0  0  0  0
  1 21  1  0  0  0  0
  1 22  1  0  0  0  0
  1 23  1  0  0  0  0
  2 24  1  0  0  0  0
  2 25  1  0  0  0  0
  6 26  1  0  0  0  0
  6 27  1  0  0  0  0
 12 28  1  0  0  0  0
 12 29  1  0  0  0  0
 13 30  1  0  0  0  0
 13 31  1  0  0  0  0
 13 32  1  0  0  0  0
 18 33  1  0  0  0  0
 18 34  1  0  0  0  0
 18 35  1  0  0  0  0
 20 36  1  0  0  0  0
 20 37  1  0  0  0  0
 20 38  1  0  0  0  0
M  END
