 xtb: 6.7.1 (edcfbbe)
          04092505213D

 41 40  0     0  0            999 V2000
    2.0985   -0.2638   -2.5402 C   0  0  0  0  0  0  0  0  0  0  0  0
    1.6996   -1.3048   -1.5133 C   0  0  0  0  0  0  0  0  0  0  0  0
    2.5398   -1.2720   -0.3513 O   0  0  0  0  0  0  0  0  0  0  0  0
    2.4378   -0.2033    0.8319 P   0  0  0  0  0  0  0  0  0  0  0  0
    2.9961    1.6364    0.4743 S   0  0  0  0  0  0  0  0  0  0  0  0
    3.3758   -0.8474    1.9172 O   0  0  0  0  0  0  0  0  0  0  0  0
    3.1932   -2.1791    2.4618 C   0  0  0  0  0  0  0  0  0  0  0  0
    4.0726   -3.1828    1.7446 C   0  0  0  0  0  0  0  0  0  0  0  0
    0.4561   -0.4698    1.5884 S   0  0  0  0  0  0  0  0  0  0  0  0
   -0.1985    1.1774    1.2371 C   0  0  0  0  0  0  0  0  0  0  0  0
   -0.4129    1.5365   -0.5367 S   0  0  0  0  0  0  0  0  0  0  0  0
   -2.2322    0.5229   -0.8625 P   0  0  0  0  0  0  0  0  0  0  0  0
   -3.0232    0.6442   -2.6505 S   0  0  0  0  0  0  0  0  0  0  0  0
   -3.2196    0.9495    0.3231 O   0  0  0  0  0  0  0  0  0  0  0  0
   -4.1666    2.0173    0.1610 C   0  0  0  0  0  0  0  0  0  0  0  0
   -3.4855    3.3701    0.1072 C   0  0  0  0  0  0  0  0  0  0  0  0
   -1.7897   -0.9240   -0.3936 O   0  0  0  0  0  0  0  0  0  0  0  0
   -2.7162   -2.0353   -0.4086 C   0  0  0  0  0  0  0  0  0  0  0  0
   -1.9048   -3.3069   -0.2747 C   0  0  0  0  0  0  0  0  0  0  0  0
    3.1379   -0.3977   -2.8273 H   0  0  0  0  0  0  0  0  0  0  0  0
    1.4650   -0.3639   -3.4165 H   0  0  0  0  0  0  0  0  0  0  0  0
    1.9766    0.7392   -2.1348 H   0  0  0  0  0  0  0  0  0  0  0  0
    1.8315   -2.3149   -1.9067 H   0  0  0  0  0  0  0  0  0  0  0  0
    0.6570   -1.1703   -1.2066 H   0  0  0  0  0  0  0  0  0  0  0  0
    3.4763   -2.0820    3.5114 H   0  0  0  0  0  0  0  0  0  0  0  0
    2.1363   -2.4495    2.3897 H   0  0  0  0  0  0  0  0  0  0  0  0
    3.7910   -3.2541    0.6977 H   0  0  0  0  0  0  0  0  0  0  0  0
    5.1126   -2.8740    1.8048 H   0  0  0  0  0  0  0  0  0  0  0  0
    3.9591   -4.1545    2.2151 H   0  0  0  0  0  0  0  0  0  0  0  0
    0.5036    1.9280    1.5974 H   0  0  0  0  0  0  0  0  0  0  0  0
   -1.1587    1.2423    1.7423 H   0  0  0  0  0  0  0  0  0  0  0  0
   -4.7339    1.8390   -0.7581 H   0  0  0  0  0  0  0  0  0  0  0  0
   -4.8226    1.9266    1.0279 H   0  0  0  0  0  0  0  0  0  0  0  0
   -2.8834    3.5348    0.9973 H   0  0  0  0  0  0  0  0  0  0  0  0
   -2.8399    3.4235   -0.7696 H   0  0  0  0  0  0  0  0  0  0  0  0
   -4.2377    4.1491    0.0357 H   0  0  0  0  0  0  0  0  0  0  0  0
   -3.4072   -1.9101    0.4279 H   0  0  0  0  0  0  0  0  0  0  0  0
   -3.2771   -2.0057   -1.3486 H   0  0  0  0  0  0  0  0  0  0  0  0
   -1.2426   -3.4216   -1.1283 H   0  0  0  0  0  0  0  0  0  0  0  0
   -1.3091   -3.2666    0.6332 H   0  0  0  0  0  0  0  0  0  0  0  0
   -2.5786   -4.1560   -0.2280 H   0  0  0  0  0  0  0  0  0  0  0  0
  1  2  1  0  0  0  0
  2  3  1  0  0  0  0
  3  4  2  0  0  0  0
  4  5  2  0  0  0  0
  4  6  2  0  0  0  0
  6  7  1  0  0  0  0
  7  8  1  0  0  0  0
  4  9  1  0  0  0  0
  9 10  1  0  0  0  0
 10 11  1  0  0  0  0
 11 12  1  0  0  0  0
 12 13  2  0  0  0  0
 12 14  1  0  0  0  0
 14 15  1  0  0  0  0
 15 16  1  0  0  0  0
 12 17  2  0  0  0  0
 17 18  1  0  0  0  0
 18 19  1  0  0  0  0
  1 20  1  0  0  0  0
  1 21  1  0  0  0  0
  1 22  1  0  0  0  0
  2 23  1  0  0  0  0
  2 24  1  0  0  0  0
  7 25  1  0  0  0  0
  7 26  1  0  0  0  0
  8 27  1  0  0  0  0
  8 28  1  0  0  0  0
  8 29  1  0  0  0  0
 10 30  1  0  0  0  0
 10 31  1  0  0  0  0
 15 32  1  0  0  0  0
 15 33  1  0  0  0  0
 16 34  1  0  0  0  0
 16 35  1  0  0  0  0
 16 36  1  0  0  0  0
 18 37  1  0  0  0  0
 18 38  1  0  0  0  0
 19 39  1  0  0  0  0
 19 40  1  0  0  0  0
 19 41  1  0  0  0  0
M  END
