 xtb: 6.7.1 (edcfbbe)
          04092505213D

 41 40  0     0  0            999 V2000
    2.3999    1.0031   -2.7648 C   0  0  0  0  0  0  0  0  0  0  0  0
    1.7506    1.4519   -1.4708 C   0  0  0  0  0  0  0  0  0  0  0  0
    1.6716    0.3278   -0.5805 O   0  0  0  0  0  0  0  0  0  0  0  0
    2.1962    0.3271    0.9248 P   0  0  0  0  0  0  0  0  0  0  0  0
    3.5307    1.7110    1.2937 S   0  0  0  0  0  0  0  0  0  0  0  0
    2.6427   -1.1818    1.1374 O   0  0  0  0  0  0  0  0  0  0  0  0
    3.7351   -1.7409    0.3708 C   0  0  0  0  0  0  0  0  0  0  0  0
    3.2024   -2.5951   -0.7623 C   0  0  0  0  0  0  0  0  0  0  0  0
    0.5094    0.3080    2.1659 S   0  0  0  0  0  0  0  0  0  0  0  0
   -0.3019   -1.2317    1.5660 C   0  0  0  0  0  0  0  0  0  0  0  0
   -2.0658   -1.0052    1.2975 S   0  0  0  0  0  0  0  0  0  0  0  0
   -1.8962   -0.1563   -0.6544 P   0  0  0  0  0  0  0  0  0  0  0  0
   -0.8004   -1.1474   -1.9312 S   0  0  0  0  0  0  0  0  0  0  0  0
   -1.3455    1.3061   -0.4065 O   0  0  0  0  0  0  0  0  0  0  0  0
   -1.9980    2.2724    0.4535 C   0  0  0  0  0  0  0  0  0  0  0  0
   -2.8755    3.2057   -0.3541 C   0  0  0  0  0  0  0  0  0  0  0  0
   -3.4014    0.1037   -1.0885 O   0  0  0  0  0  0  0  0  0  0  0  0
   -4.1977   -0.8990   -1.7462 C   0  0  0  0  0  0  0  0  0  0  0  0
   -4.4720   -2.0926   -0.8552 C   0  0  0  0  0  0  0  0  0  0  0  0
    3.4180    0.6697   -2.5796 H   0  0  0  0  0  0  0  0  0  0  0  0
    1.8288    0.1850   -3.1975 H   0  0  0  0  0  0  0  0  0  0  0  0
    2.4173    1.8357   -3.4602 H   0  0  0  0  0  0  0  0  0  0  0  0
    0.7271    1.7932   -1.6404 H   0  0  0  0  0  0  0  0  0  0  0  0
    2.3305    2.2455   -0.9872 H   0  0  0  0  0  0  0  0  0  0  0  0
    4.3626   -0.9239    0.0003 H   0  0  0  0  0  0  0  0  0  0  0  0
    4.3045   -2.3360    1.0872 H   0  0  0  0  0  0  0  0  0  0  0  0
    4.0364   -2.9997   -1.3267 H   0  0  0  0  0  0  0  0  0  0  0  0
    2.6080   -3.4135   -0.3654 H   0  0  0  0  0  0  0  0  0  0  0  0
    2.5759   -2.0029   -1.4257 H   0  0  0  0  0  0  0  0  0  0  0  0
   -0.1868   -1.9903    2.3347 H   0  0  0  0  0  0  0  0  0  0  0  0
    0.1667   -1.5335    0.6288 H   0  0  0  0  0  0  0  0  0  0  0  0
   -2.5780    1.7390    1.2115 H   0  0  0  0  0  0  0  0  0  0  0  0
   -1.1779    2.8083    0.9373 H   0  0  0  0  0  0  0  0  0  0  0  0
   -3.6828    2.6509   -0.8242 H   0  0  0  0  0  0  0  0  0  0  0  0
   -3.2942    3.9561    0.3093 H   0  0  0  0  0  0  0  0  0  0  0  0
   -2.2897    3.6981   -1.1257 H   0  0  0  0  0  0  0  0  0  0  0  0
   -5.1163   -0.3714   -2.0063 H   0  0  0  0  0  0  0  0  0  0  0  0
   -3.6766   -1.2094   -2.6569 H   0  0  0  0  0  0  0  0  0  0  0  0
   -3.5511   -2.6450   -0.6757 H   0  0  0  0  0  0  0  0  0  0  0  0
   -4.8773   -1.7680    0.0999 H   0  0  0  0  0  0  0  0  0  0  0  0
   -5.1846   -2.7481   -1.3455 H   0  0  0  0  0  0  0  0  0  0  0  0
  1  2  1  0  0  0  0
  2  3  1  0  0  0  0
  3  4  2  0  0  0  0
  4  5  2  0  0  0  0
  4  6  2  0  0  0  0
  6  7  1  0  0  0  0
  7  8  1  0  0  0  0
  4  9  1  0  0  0  0
  9 10  1  0  0  0  0
 10 11  1  0  0  0  0
 11 12  1  0  0  0  0
 12 13  2  0  0  0  0
 12 14  2  0  0  0  0
 14 15  1  0  0  0  0
 15 16  1  0  0  0  0
 12 17  2  0  0  0  0
 17 18  1  0  0  0  0
 18 19  1  0  0  0  0
  1 20  1  0  0  0  0
  1 21  1  0  0  0  0
  1 22  1  0  0  0  0
  2 23  1  0  0  0  0
  2 24  1  0  0  0  0
  7 25  1  0  0  0  0
  7 26  1  0  0  0  0
  8 27  1  0  0  0  0
  8 28  1  0  0  0  0
  8 29  1  0  0  0  0
 10 30  1  0  0  0  0
 10 31  1  0  0  0  0
 15 32  1  0  0  0  0
 15 33  1  0  0  0  0
 16 34  1  0  0  0  0
 16 35  1  0  0  0  0
 16 36  1  0  0  0  0
 18 37  1  0  0  0  0
 18 38  1  0  0  0  0
 19 39  1  0  0  0  0
 19 40  1  0  0  0  0
 19 41  1  0  0  0  0
M  END
