 xtb: 6.7.1 (edcfbbe)
          04092507313D

 38 37  0     0  0            999 V2000
    4.0573   -3.3939    0.6702 C   0  0  0  0  0  0  0  0  0  0  0  0
    2.9828   -2.3456    0.8770 C   0  0  0  0  0  0  0  0  0  0  0  0
    2.8334   -1.6155   -0.3590 O   0  0  0  0  0  0  0  0  0  0  0  0
    1.8076   -0.8191   -0.4915 C   0  0  0  0  0  0  0  0  0  0  0  0
    0.9779   -0.6264    0.3859 O   0  0  0  0  0  0  0  0  0  0  0  0
    1.7299   -0.1549   -1.8398 C   0  0  0  0  0  0  0  0  0  0  0  0
    0.6197    0.8817   -1.8328 C   0  0  0  0  0  0  0  0  0  0  0  0
    0.5546    1.3856   -2.8019 H   0  0  0  0  0  0  0  0  0  0  0  0
    0.8285    1.9523   -0.7703 C   0  0  0  0  0  0  0  0  0  0  0  0
    1.8588    2.0701   -0.1457 O   0  0  0  0  0  0  0  0  0  0  0  0
   -0.2054    2.7590   -0.6890 O   0  0  0  0  0  0  0  0  0  0  0  0
   -0.0968    3.9495    0.1192 C   0  0  0  0  0  0  0  0  0  0  0  0
   -0.3664    3.6845    1.5900 C   0  0  0  0  0  0  0  0  0  0  0  0
   -1.0536    0.1411   -1.7094 S   0  0  0  0  0  0  0  0  0  0  0  0
   -1.4529   -0.7024    0.1958 P   0  0  0  0  0  0  0  0  0  0  0  0
   -1.0680   -2.5601    0.6932 S   0  0  0  0  0  0  0  0  0  0  0  0
   -1.2717    0.4438    1.3079 O   0  0  0  0  0  0  0  0  0  0  0  0
   -0.5461    0.2543    2.5212 C   0  0  0  0  0  0  0  0  0  0  0  0
   -3.0508   -0.7031    0.0194 O   0  0  0  0  0  0  0  0  0  0  0  0
   -3.8434    0.4746   -0.2030 C   0  0  0  0  0  0  0  0  0  0  0  0
    3.7581   -4.0843   -0.1125 H   0  0  0  0  0  0  0  0  0  0  0  0
    4.9902   -2.9178    0.3845 H   0  0  0  0  0  0  0  0  0  0  0  0
    4.2007   -3.9435    1.5942 H   0  0  0  0  0  0  0  0  0  0  0  0
    3.2579   -1.6319    1.6595 H   0  0  0  0  0  0  0  0  0  0  0  0
    2.0166   -2.7919    1.1345 H   0  0  0  0  0  0  0  0  0  0  0  0
    1.5391   -0.9142   -2.5999 H   0  0  0  0  0  0  0  0  0  0  0  0
    2.6928    0.3139   -2.0496 H   0  0  0  0  0  0  0  0  0  0  0  0
    0.9070    4.3624   -0.0164 H   0  0  0  0  0  0  0  0  0  0  0  0
   -0.8462    4.6167   -0.3071 H   0  0  0  0  0  0  0  0  0  0  0  0
   -1.3152    3.1693    1.7120 H   0  0  0  0  0  0  0  0  0  0  0  0
    0.4249    3.0712    2.0137 H   0  0  0  0  0  0  0  0  0  0  0  0
   -0.4007    4.6304    2.1205 H   0  0  0  0  0  0  0  0  0  0  0  0
   -1.0941    0.7909    3.2926 H   0  0  0  0  0  0  0  0  0  0  0  0
    0.4605    0.6540    2.4057 H   0  0  0  0  0  0  0  0  0  0  0  0
   -0.4845   -0.8080    2.7635 H   0  0  0  0  0  0  0  0  0  0  0  0
   -3.4149    1.3276    0.3206 H   0  0  0  0  0  0  0  0  0  0  0  0
   -4.8287    0.2399    0.1931 H   0  0  0  0  0  0  0  0  0  0  0  0
   -3.8985    0.6775   -1.2715 H   0  0  0  0  0  0  0  0  0  0  0  0
  1  2  1  0  0  0  0
  2  3  1  0  0  0  0
  3  4  4  0  0  0  0
  4  5  2  0  0  0  0
  4  6  1  0  0  0  0
  6  7  1  0  0  0  0
  7  8  1  0  0  0  0
  7  9  1  0  0  0  0
  9 10  2  0  0  0  0
  9 11  4  0  0  0  0
 11 12  1  0  0  0  0
 12 13  1  0  0  0  0
  7 14  1  0  0  0  0
 14 15  1  0  0  0  0
 15 16  2  0  0  0  0
 15 17  1  0  0  0  0
 17 18  1  0  0  0  0
 15 19  1  0  0  0  0
 19 20  1  0  0  0  0
  1 21  1  0  0  0  0
  1 22  1  0  0  0  0
  1 23  1  0  0  0  0
  2 24  1  0  0  0  0
  2 25  1  0  0  0  0
  6 26  1  0  0  0  0
  6 27  1  0  0  0  0
 12 28  1  0  0  0  0
 12 29  1  0  0  0  0
 13 30  1  0  0  0  0
 13 31  1  0  0  0  0
 13 32  1  0  0  0  0
 18 33  1  0  0  0  0
 18 34  1  0  0  0  0
 18 35  1  0  0  0  0
 20 36  1  0  0  0  0
 20 37  1  0  0  0  0
 20 38  1  0  0  0  0
M  END
