 xtb: 6.7.1 (edcfbbe)
          04092505203D

 41 40  0     0  0            999 V2000
    5.7105   -0.1635    0.3642 C   0  0  0  0  0  0  0  0  0  0  0  0
    4.3935   -0.6352   -0.2184 C   0  0  0  0  0  0  0  0  0  0  0  0
    3.3398    0.1512    0.3712 O   0  0  0  0  0  0  0  0  0  0  0  0
    1.8897    0.2171   -0.2781 P   0  0  0  0  0  0  0  0  0  0  0  0
    1.8867    0.5711   -2.2110 S   0  0  0  0  0  0  0  0  0  0  0  0
    1.1819    1.2599    0.6749 O   0  0  0  0  0  0  0  0  0  0  0  0
    1.1898    2.6755    0.4079 C   0  0  0  0  0  0  0  0  0  0  0  0
    2.5788    3.2640    0.5239 C   0  0  0  0  0  0  0  0  0  0  0  0
    1.0703   -1.6175    0.3398 S   0  0  0  0  0  0  0  0  0  0  0  0
   -0.1460   -1.9245   -0.9859 C   0  0  0  0  0  0  0  0  0  0  0  0
   -1.8385   -2.0486   -0.3701 S   0  0  0  0  0  0  0  0  0  0  0  0
   -2.1183    0.0008    0.1222 P   0  0  0  0  0  0  0  0  0  0  0  0
   -1.5469    1.2955   -1.2285 S   0  0  0  0  0  0  0  0  0  0  0  0
   -1.3966    0.2152    1.5066 O   0  0  0  0  0  0  0  0  0  0  0  0
   -1.7263   -0.5604    2.6908 C   0  0  0  0  0  0  0  0  0  0  0  0
   -0.5349   -0.5161    3.6240 C   0  0  0  0  0  0  0  0  0  0  0  0
   -3.6493    0.0751    0.5430 O   0  0  0  0  0  0  0  0  0  0  0  0
   -4.7166    0.2902   -0.3988 C   0  0  0  0  0  0  0  0  0  0  0  0
   -4.8678   -0.8584   -1.3745 C   0  0  0  0  0  0  0  0  0  0  0  0
    5.8815    0.8790    0.1112 H   0  0  0  0  0  0  0  0  0  0  0  0
    5.6932   -0.2655    1.4453 H   0  0  0  0  0  0  0  0  0  0  0  0
    6.5151   -0.7671   -0.0424 H   0  0  0  0  0  0  0  0  0  0  0  0
    4.2069   -1.6866    0.0170 H   0  0  0  0  0  0  0  0  0  0  0  0
    4.3610   -0.5009   -1.3051 H   0  0  0  0  0  0  0  0  0  0  0  0
    0.7736    2.8426   -0.5916 H   0  0  0  0  0  0  0  0  0  0  0  0
    0.5055    3.0823    1.1542 H   0  0  0  0  0  0  0  0  0  0  0  0
    3.2140    2.8653   -0.2664 H   0  0  0  0  0  0  0  0  0  0  0  0
    2.5204    4.3429    0.4193 H   0  0  0  0  0  0  0  0  0  0  0  0
    3.0130    3.0122    1.4878 H   0  0  0  0  0  0  0  0  0  0  0  0
    0.0840   -2.8873   -1.4346 H   0  0  0  0  0  0  0  0  0  0  0  0
   -0.0705   -1.1187   -1.7216 H   0  0  0  0  0  0  0  0  0  0  0  0
   -2.6118   -0.1077    3.1404 H   0  0  0  0  0  0  0  0  0  0  0  0
   -1.9580   -1.5850    2.3851 H   0  0  0  0  0  0  0  0  0  0  0  0
    0.3317   -0.9699    3.1495 H   0  0  0  0  0  0  0  0  0  0  0  0
   -0.2950    0.5134    3.8741 H   0  0  0  0  0  0  0  0  0  0  0  0
   -0.7744   -1.0623    4.5306 H   0  0  0  0  0  0  0  0  0  0  0  0
   -5.5981    0.4001    0.2344 H   0  0  0  0  0  0  0  0  0  0  0  0
   -4.5212    1.2256   -0.9319 H   0  0  0  0  0  0  0  0  0  0  0  0
   -4.0110   -0.8939   -2.0456 H   0  0  0  0  0  0  0  0  0  0  0  0
   -4.9354   -1.8031   -0.8409 H   0  0  0  0  0  0  0  0  0  0  0  0
   -5.7674   -0.7102   -1.9632 H   0  0  0  0  0  0  0  0  0  0  0  0
  1  2  1  0  0  0  0
  2  3  1  0  0  0  0
  3  4  2  0  0  0  0
  4  5  2  0  0  0  0
  4  6  2  0  0  0  0
  6  7  1  0  0  0  0
  7  8  1  0  0  0  0
  4  9  1  0  0  0  0
  9 10  1  0  0  0  0
 10 11  1  0  0  0  0
 11 12  1  0  0  0  0
 12 13  2  0  0  0  0
 12 14  2  0  0  0  0
 14 15  1  0  0  0  0
 15 16  1  0  0  0  0
 12 17  2  0  0  0  0
 17 18  1  0  0  0  0
 18 19  1  0  0  0  0
  1 20  1  0  0  0  0
  1 21  1  0  0  0  0
  1 22  1  0  0  0  0
  2 23  1  0  0  0  0
  2 24  1  0  0  0  0
  7 25  1  0  0  0  0
  7 26  1  0  0  0  0
  8 27  1  0  0  0  0
  8 28  1  0  0  0  0
  8 29  1  0  0  0  0
 10 30  1  0  0  0  0
 10 31  1  0  0  0  0
 15 32  1  0  0  0  0
 15 33  1  0  0  0  0
 16 34  1  0  0  0  0
 16 35  1  0  0  0  0
 16 36  1  0  0  0  0
 18 37  1  0  0  0  0
 18 38  1  0  0  0  0
 19 39  1  0  0  0  0
 19 40  1  0  0  0  0
 19 41  1  0  0  0  0
M  END
