 xtb: 6.7.1 (edcfbbe)
          04092505203D

 41 40  0     0  0            999 V2000
    5.4862   -0.0611    0.6889 C   0  0  0  0  0  0  0  0  0  0  0  0
    4.3976   -1.0680    0.3800 C   0  0  0  0  0  0  0  0  0  0  0  0
    3.6805   -0.7049   -0.8267 O   0  0  0  0  0  0  0  0  0  0  0  0
    2.3379    0.1183   -0.8410 P   0  0  0  0  0  0  0  0  0  0  0  0
    1.6917    0.3568   -2.6699 S   0  0  0  0  0  0  0  0  0  0  0  0
    2.7472    1.4416   -0.0590 O   0  0  0  0  0  0  0  0  0  0  0  0
    1.8874    2.5891    0.0664 C   0  0  0  0  0  0  0  0  0  0  0  0
    1.2462    2.6338    1.4393 C   0  0  0  0  0  0  0  0  0  0  0  0
    1.0545   -0.9329    0.4999 S   0  0  0  0  0  0  0  0  0  0  0  0
   -0.0597   -1.7022   -0.7222 C   0  0  0  0  0  0  0  0  0  0  0  0
   -1.7140   -1.9265   -0.0532 S   0  0  0  0  0  0  0  0  0  0  0  0
   -2.1483    0.1258    0.3554 P   0  0  0  0  0  0  0  0  0  0  0  0
   -1.4985    1.3977   -0.9876 S   0  0  0  0  0  0  0  0  0  0  0  0
   -1.5671    0.4598    1.7828 O   0  0  0  0  0  0  0  0  0  0  0  0
   -2.1325    0.0644    3.0577 C   0  0  0  0  0  0  0  0  0  0  0  0
   -2.0454   -1.4289    3.2928 C   0  0  0  0  0  0  0  0  0  0  0  0
   -3.7143    0.1343    0.6232 O   0  0  0  0  0  0  0  0  0  0  0  0
   -4.6869    0.2893   -0.4251 C   0  0  0  0  0  0  0  0  0  0  0  0
   -4.6917   -0.8795   -1.3886 C   0  0  0  0  0  0  0  0  0  0  0  0
    6.0463   -0.3996    1.5551 H   0  0  0  0  0  0  0  0  0  0  0  0
    6.1581    0.0314   -0.1599 H   0  0  0  0  0  0  0  0  0  0  0  0
    5.0527    0.9128    0.8984 H   0  0  0  0  0  0  0  0  0  0  0  0
    3.6830   -1.1483    1.2044 H   0  0  0  0  0  0  0  0  0  0  0  0
    4.8171   -2.0506    0.1569 H   0  0  0  0  0  0  0  0  0  0  0  0
    2.5426    3.4478   -0.0925 H   0  0  0  0  0  0  0  0  0  0  0  0
    1.1306    2.5651   -0.7247 H   0  0  0  0  0  0  0  0  0  0  0  0
    0.5576    1.8013    1.5667 H   0  0  0  0  0  0  0  0  0  0  0  0
    2.0096    2.5855    2.2105 H   0  0  0  0  0  0  0  0  0  0  0  0
    0.6900    3.5608    1.5362 H   0  0  0  0  0  0  0  0  0  0  0  0
    0.3074   -2.6939   -0.9754 H   0  0  0  0  0  0  0  0  0  0  0  0
   -0.0923   -1.0553   -1.6040 H   0  0  0  0  0  0  0  0  0  0  0  0
   -1.5254    0.6178    3.7760 H   0  0  0  0  0  0  0  0  0  0  0  0
   -3.1665    0.4106    3.0965 H   0  0  0  0  0  0  0  0  0  0  0  0
   -2.3348   -1.6409    4.3173 H   0  0  0  0  0  0  0  0  0  0  0  0
   -2.7116   -1.9622    2.6185 H   0  0  0  0  0  0  0  0  0  0  0  0
   -1.0277   -1.7759    3.1289 H   0  0  0  0  0  0  0  0  0  0  0  0
   -5.6332    0.3718    0.1117 H   0  0  0  0  0  0  0  0  0  0  0  0
   -4.4768    1.2234   -0.9553 H   0  0  0  0  0  0  0  0  0  0  0  0
   -3.7688   -0.8913   -1.9666 H   0  0  0  0  0  0  0  0  0  0  0  0
   -4.7787   -1.8182   -0.8473 H   0  0  0  0  0  0  0  0  0  0  0  0
   -5.5293   -0.7765   -2.0710 H   0  0  0  0  0  0  0  0  0  0  0  0
  1  2  1  0  0  0  0
  2  3  1  0  0  0  0
  3  4  2  0  0  0  0
  4  5  2  0  0  0  0
  4  6  2  0  0  0  0
  6  7  1  0  0  0  0
  7  8  1  0  0  0  0
  4  9  1  0  0  0  0
  9 10  1  0  0  0  0
 10 11  1  0  0  0  0
 11 12  1  0  0  0  0
 12 13  2  0  0  0  0
 12 14  2  0  0  0  0
 14 15  1  0  0  0  0
 15 16  1  0  0  0  0
 12 17  2  0  0  0  0
 17 18  1  0  0  0  0
 18 19  1  0  0  0  0
  1 20  1  0  0  0  0
  1 21  1  0  0  0  0
  1 22  1  0  0  0  0
  2 23  1  0  0  0  0
  2 24  1  0  0  0  0
  7 25  1  0  0  0  0
  7 26  1  0  0  0  0
  8 27  1  0  0  0  0
  8 28  1  0  0  0  0
  8 29  1  0  0  0  0
 10 30  1  0  0  0  0
 10 31  1  0  0  0  0
 15 32  1  0  0  0  0
 15 33  1  0  0  0  0
 16 34  1  0  0  0  0
 16 35  1  0  0  0  0
 16 36  1  0  0  0  0
 18 37  1  0  0  0  0
 18 38  1  0  0  0  0
 19 39  1  0  0  0  0
 19 40  1  0  0  0  0
 19 41  1  0  0  0  0
M  END
