 xtb: 6.7.1 (edcfbbe)
          04092505213D

 41 40  0     0  0            999 V2000
    1.8048   -0.9323   -2.7587 C   0  0  0  0  0  0  0  0  0  0  0  0
    3.1896   -0.6765   -2.2001 C   0  0  0  0  0  0  0  0  0  0  0  0
    3.2860   -1.0215   -0.8070 O   0  0  0  0  0  0  0  0  0  0  0  0
    2.5919   -0.1745    0.3445 P   0  0  0  0  0  0  0  0  0  0  0  0
    2.7058    1.7714    0.1815 S   0  0  0  0  0  0  0  0  0  0  0  0
    3.3306   -0.6666    1.6496 O   0  0  0  0  0  0  0  0  0  0  0  0
    3.4485   -2.0569    2.0453 C   0  0  0  0  0  0  0  0  0  0  0  0
    4.7346   -2.6657    1.5258 C   0  0  0  0  0  0  0  0  0  0  0  0
    0.6481   -1.0180    0.5106 S   0  0  0  0  0  0  0  0  0  0  0  0
   -0.0462    0.3245    1.5351 C   0  0  0  0  0  0  0  0  0  0  0  0
   -1.8368    0.2235    1.6301 S   0  0  0  0  0  0  0  0  0  0  0  0
   -2.3138    0.8949   -0.3532 P   0  0  0  0  0  0  0  0  0  0  0  0
   -0.8367    1.6068   -1.4189 S   0  0  0  0  0  0  0  0  0  0  0  0
   -3.4349    1.9718   -0.1182 O   0  0  0  0  0  0  0  0  0  0  0  0
   -4.6118    1.7575    0.7023 C   0  0  0  0  0  0  0  0  0  0  0  0
   -5.7673    1.2293   -0.1222 C   0  0  0  0  0  0  0  0  0  0  0  0
   -3.1188   -0.2981   -1.0299 O   0  0  0  0  0  0  0  0  0  0  0  0
   -2.4908   -1.4465   -1.6304 C   0  0  0  0  0  0  0  0  0  0  0  0
   -2.4089   -2.6019   -0.6520 C   0  0  0  0  0  0  0  0  0  0  0  0
    1.4740   -1.9354   -2.5010 H   0  0  0  0  0  0  0  0  0  0  0  0
    1.0975   -0.2070   -2.3577 H   0  0  0  0  0  0  0  0  0  0  0  0
    1.8291   -0.8255   -3.8384 H   0  0  0  0  0  0  0  0  0  0  0  0
    3.4653    0.3761   -2.3183 H   0  0  0  0  0  0  0  0  0  0  0  0
    3.9379   -1.3120   -2.6763 H   0  0  0  0  0  0  0  0  0  0  0  0
    3.4381   -2.0253    3.1363 H   0  0  0  0  0  0  0  0  0  0  0  0
    2.5747   -2.6037    1.6794 H   0  0  0  0  0  0  0  0  0  0  0  0
    4.8315   -3.6737    1.9172 H   0  0  0  0  0  0  0  0  0  0  0  0
    4.7258   -2.7011    0.4401 H   0  0  0  0  0  0  0  0  0  0  0  0
    5.5847   -2.0716    1.8501 H   0  0  0  0  0  0  0  0  0  0  0  0
    0.2525    1.2765    1.0892 H   0  0  0  0  0  0  0  0  0  0  0  0
    0.3234    0.2325    2.5540 H   0  0  0  0  0  0  0  0  0  0  0  0
   -4.3541    1.0713    1.5139 H   0  0  0  0  0  0  0  0  0  0  0  0
   -4.8330    2.7453    1.1107 H   0  0  0  0  0  0  0  0  0  0  0  0
   -5.9720    1.9030   -0.9498 H   0  0  0  0  0  0  0  0  0  0  0  0
   -5.5312    0.2469   -0.5204 H   0  0  0  0  0  0  0  0  0  0  0  0
   -6.6476    1.1594    0.5091 H   0  0  0  0  0  0  0  0  0  0  0  0
   -3.1315   -1.6915   -2.4796 H   0  0  0  0  0  0  0  0  0  0  0  0
   -1.4994   -1.1599   -1.9948 H   0  0  0  0  0  0  0  0  0  0  0  0
   -3.3902   -2.8062   -0.2337 H   0  0  0  0  0  0  0  0  0  0  0  0
   -2.0517   -3.4823   -1.1758 H   0  0  0  0  0  0  0  0  0  0  0  0
   -1.7186   -2.3728    0.1570 H   0  0  0  0  0  0  0  0  0  0  0  0
  1  2  1  0  0  0  0
  2  3  1  0  0  0  0
  3  4  2  0  0  0  0
  4  5  2  0  0  0  0
  4  6  2  0  0  0  0
  6  7  1  0  0  0  0
  7  8  1  0  0  0  0
  4  9  1  0  0  0  0
  9 10  1  0  0  0  0
 10 11  1  0  0  0  0
 11 12  1  0  0  0  0
 12 13  2  0  0  0  0
 12 14  2  0  0  0  0
 14 15  1  0  0  0  0
 15 16  1  0  0  0  0
 12 17  2  0  0  0  0
 17 18  1  0  0  0  0
 18 19  1  0  0  0  0
  1 20  1  0  0  0  0
  1 21  1  0  0  0  0
  1 22  1  0  0  0  0
  2 23  1  0  0  0  0
  2 24  1  0  0  0  0
  7 25  1  0  0  0  0
  7 26  1  0  0  0  0
  8 27  1  0  0  0  0
  8 28  1  0  0  0  0
  8 29  1  0  0  0  0
 10 30  1  0  0  0  0
 10 31  1  0  0  0  0
 15 32  1  0  0  0  0
 15 33  1  0  0  0  0
 16 34  1  0  0  0  0
 16 35  1  0  0  0  0
 16 36  1  0  0  0  0
 18 37  1  0  0  0  0
 18 38  1  0  0  0  0
 19 39  1  0  0  0  0
 19 40  1  0  0  0  0
 19 41  1  0  0  0  0
M  END
