 xtb: 6.7.1 (edcfbbe)
          04092505213D

 41 40  0     0  0            999 V2000
    3.2659    2.1195   -0.7370 C   0  0  0  0  0  0  0  0  0  0  0  0
    3.6962    0.9958    0.1844 C   0  0  0  0  0  0  0  0  0  0  0  0
    3.0739   -0.2510   -0.1872 O   0  0  0  0  0  0  0  0  0  0  0  0
    1.9024   -0.9627    0.6254 P   0  0  0  0  0  0  0  0  0  0  0  0
    1.3418   -0.0065    2.2441 S   0  0  0  0  0  0  0  0  0  0  0  0
    2.3880   -2.4542    0.8802 O   0  0  0  0  0  0  0  0  0  0  0  0
    3.0367   -2.8501    2.1038 C   0  0  0  0  0  0  0  0  0  0  0  0
    4.4361   -2.2774    2.2059 C   0  0  0  0  0  0  0  0  0  0  0  0
    0.5404   -1.5107   -0.8927 S   0  0  0  0  0  0  0  0  0  0  0  0
    0.3853    0.0973   -1.7258 C   0  0  0  0  0  0  0  0  0  0  0  0
   -0.3623    1.3728   -0.6867 S   0  0  0  0  0  0  0  0  0  0  0  0
   -2.3525    0.6203   -0.7953 P   0  0  0  0  0  0  0  0  0  0  0  0
   -2.8792   -0.0900   -2.5392 S   0  0  0  0  0  0  0  0  0  0  0  0
   -3.2088    1.7924   -0.1506 O   0  0  0  0  0  0  0  0  0  0  0  0
   -3.1286    3.1837   -0.5189 C   0  0  0  0  0  0  0  0  0  0  0  0
   -3.3144    3.4088   -2.0045 C   0  0  0  0  0  0  0  0  0  0  0  0
   -2.5056   -0.5125    0.2888 O   0  0  0  0  0  0  0  0  0  0  0  0
   -2.2691   -0.3238    1.7051 C   0  0  0  0  0  0  0  0  0  0  0  0
   -1.9969   -1.6845    2.3107 C   0  0  0  0  0  0  0  0  0  0  0  0
    3.8178    3.0164   -0.4750 H   0  0  0  0  0  0  0  0  0  0  0  0
    3.4774    1.8642   -1.7720 H   0  0  0  0  0  0  0  0  0  0  0  0
    2.2010    2.3185   -0.6233 H   0  0  0  0  0  0  0  0  0  0  0  0
    3.4325    1.2278    1.2217 H   0  0  0  0  0  0  0  0  0  0  0  0
    4.7689    0.8099    0.1070 H   0  0  0  0  0  0  0  0  0  0  0  0
    2.4222   -2.5195    2.9477 H   0  0  0  0  0  0  0  0  0  0  0  0
    3.0469   -3.9397    2.0563 H   0  0  0  0  0  0  0  0  0  0  0  0
    4.3863   -1.1938    2.3072 H   0  0  0  0  0  0  0  0  0  0  0  0
    4.9314   -2.6900    3.0792 H   0  0  0  0  0  0  0  0  0  0  0  0
    5.0080   -2.5250    1.3153 H   0  0  0  0  0  0  0  0  0  0  0  0
   -0.2581   -0.0743   -2.5912 H   0  0  0  0  0  0  0  0  0  0  0  0
    1.3679    0.4522   -2.0251 H   0  0  0  0  0  0  0  0  0  0  0  0
   -3.9297    3.6468    0.0599 H   0  0  0  0  0  0  0  0  0  0  0  0
   -2.1601    3.5670   -0.1860 H   0  0  0  0  0  0  0  0  0  0  0  0
   -4.2492    2.9666   -2.3410 H   0  0  0  0  0  0  0  0  0  0  0  0
   -3.3258    4.4747   -2.2083 H   0  0  0  0  0  0  0  0  0  0  0  0
   -2.4984    2.9485   -2.5597 H   0  0  0  0  0  0  0  0  0  0  0  0
   -1.4142    0.3462    1.8422 H   0  0  0  0  0  0  0  0  0  0  0  0
   -3.1595    0.1386    2.1341 H   0  0  0  0  0  0  0  0  0  0  0  0
   -2.8425   -2.3450    2.1440 H   0  0  0  0  0  0  0  0  0  0  0  0
   -1.1142   -2.1273    1.8523 H   0  0  0  0  0  0  0  0  0  0  0  0
   -1.8221   -1.5700    3.3757 H   0  0  0  0  0  0  0  0  0  0  0  0
  1  2  1  0  0  0  0
  2  3  1  0  0  0  0
  3  4  2  0  0  0  0
  4  5  2  0  0  0  0
  4  6  2  0  0  0  0
  6  7  1  0  0  0  0
  7  8  1  0  0  0  0
  4  9  1  0  0  0  0
  9 10  1  0  0  0  0
 10 11  1  0  0  0  0
 11 12  1  0  0  0  0
 12 13  2  0  0  0  0
 12 14  2  0  0  0  0
 14 15  1  0  0  0  0
 15 16  1  0  0  0  0
 12 17  2  0  0  0  0
 17 18  1  0  0  0  0
 18 19  1  0  0  0  0
  1 20  1  0  0  0  0
  1 21  1  0  0  0  0
  1 22  1  0  0  0  0
  2 23  1  0  0  0  0
  2 24  1  0  0  0  0
  7 25  1  0  0  0  0
  7 26  1  0  0  0  0
  8 27  1  0  0  0  0
  8 28  1  0  0  0  0
  8 29  1  0  0  0  0
 10 30  1  0  0  0  0
 10 31  1  0  0  0  0
 15 32  1  0  0  0  0
 15 33  1  0  0  0  0
 16 34  1  0  0  0  0
 16 35  1  0  0  0  0
 16 36  1  0  0  0  0
 18 37  1  0  0  0  0
 18 38  1  0  0  0  0
 19 39  1  0  0  0  0
 19 40  1  0  0  0  0
 19 41  1  0  0  0  0
M  END
