 xtb: 6.7.1 (edcfbbe)
          04092505203D

 41 40  0     0  0            999 V2000
    4.1952   -0.3207   -2.3891 C   0  0  0  0  0  0  0  0  0  0  0  0
    4.4310    0.4441   -1.1027 C   0  0  0  0  0  0  0  0  0  0  0  0
    3.7419   -0.1439    0.0132 O   0  0  0  0  0  0  0  0  0  0  0  0
    2.1562   -0.1797    0.1217 P   0  0  0  0  0  0  0  0  0  0  0  0
    1.2650    1.4767   -0.4666 S   0  0  0  0  0  0  0  0  0  0  0  0
    1.9362   -0.5700    1.6400 O   0  0  0  0  0  0  0  0  0  0  0  0
    1.8860    0.4070    2.6981 C   0  0  0  0  0  0  0  0  0  0  0  0
    3.2697    0.8867    3.0852 C   0  0  0  0  0  0  0  0  0  0  0  0
    1.6283   -2.0089   -0.7685 S   0  0  0  0  0  0  0  0  0  0  0  0
   -0.1286   -1.6967   -1.0832 C   0  0  0  0  0  0  0  0  0  0  0  0
   -1.0611   -1.2741    0.4200 S   0  0  0  0  0  0  0  0  0  0  0  0
   -2.1520    0.4254   -0.2975 P   0  0  0  0  0  0  0  0  0  0  0  0
   -1.9219    0.9117   -2.1752 S   0  0  0  0  0  0  0  0  0  0  0  0
   -1.8051    1.5961    0.6969 O   0  0  0  0  0  0  0  0  0  0  0  0
   -1.8089    1.4951    2.1403 C   0  0  0  0  0  0  0  0  0  0  0  0
   -3.1803    1.7713    2.7211 C   0  0  0  0  0  0  0  0  0  0  0  0
   -3.6589    0.0943    0.1075 O   0  0  0  0  0  0  0  0  0  0  0  0
   -4.5589   -0.6161   -0.7593 C   0  0  0  0  0  0  0  0  0  0  0  0
   -4.1158   -2.0426   -1.0138 C   0  0  0  0  0  0  0  0  0  0  0  0
    4.8305    0.0842   -3.1704 H   0  0  0  0  0  0  0  0  0  0  0  0
    4.4191   -1.3752   -2.2487 H   0  0  0  0  0  0  0  0  0  0  0  0
    3.1543   -0.2206   -2.6959 H   0  0  0  0  0  0  0  0  0  0  0  0
    4.0970    1.4817   -1.2069 H   0  0  0  0  0  0  0  0  0  0  0  0
    5.4801    0.4184   -0.8049 H   0  0  0  0  0  0  0  0  0  0  0  0
    1.2638    1.2453    2.3661 H   0  0  0  0  0  0  0  0  0  0  0  0
    1.3962   -0.1185    3.5193 H   0  0  0  0  0  0  0  0  0  0  0  0
    3.9074    0.0375    3.3147 H   0  0  0  0  0  0  0  0  0  0  0  0
    3.7141    1.4482    2.2656 H   0  0  0  0  0  0  0  0  0  0  0  0
    3.1948    1.5299    3.9565 H   0  0  0  0  0  0  0  0  0  0  0  0
   -0.5172   -2.6284   -1.4876 H   0  0  0  0  0  0  0  0  0  0  0  0
   -0.2445   -0.8774   -1.7990 H   0  0  0  0  0  0  0  0  0  0  0  0
   -1.4516    0.5004    2.4242 H   0  0  0  0  0  0  0  0  0  0  0  0
   -1.0870    2.2522    2.4546 H   0  0  0  0  0  0  0  0  0  0  0  0
   -3.1044    1.7915    3.8039 H   0  0  0  0  0  0  0  0  0  0  0  0
   -3.5454    2.7321    2.3684 H   0  0  0  0  0  0  0  0  0  0  0  0
   -3.8821    0.9975    2.4240 H   0  0  0  0  0  0  0  0  0  0  0  0
   -5.5122   -0.5785   -0.2302 H   0  0  0  0  0  0  0  0  0  0  0  0
   -4.6340   -0.0648   -1.7015 H   0  0  0  0  0  0  0  0  0  0  0  0
   -3.9153   -2.5519   -0.0745 H   0  0  0  0  0  0  0  0  0  0  0  0
   -4.8988   -2.5690   -1.5500 H   0  0  0  0  0  0  0  0  0  0  0  0
   -3.2120   -2.0445   -1.6216 H   0  0  0  0  0  0  0  0  0  0  0  0
  1  2  1  0  0  0  0
  2  3  1  0  0  0  0
  3  4  2  0  0  0  0
  4  5  2  0  0  0  0
  4  6  2  0  0  0  0
  6  7  1  0  0  0  0
  7  8  1  0  0  0  0
  4  9  1  0  0  0  0
  9 10  1  0  0  0  0
 10 11  1  0  0  0  0
 11 12  1  0  0  0  0
 12 13  2  0  0  0  0
 12 14  2  0  0  0  0
 14 15  1  0  0  0  0
 15 16  1  0  0  0  0
 12 17  2  0  0  0  0
 17 18  1  0  0  0  0
 18 19  1  0  0  0  0
  1 20  1  0  0  0  0
  1 21  1  0  0  0  0
  1 22  1  0  0  0  0
  2 23  1  0  0  0  0
  2 24  1  0  0  0  0
  7 25  1  0  0  0  0
  7 26  1  0  0  0  0
  8 27  1  0  0  0  0
  8 28  1  0  0  0  0
  8 29  1  0  0  0  0
 10 30  1  0  0  0  0
 10 31  1  0  0  0  0
 15 32  1  0  0  0  0
 15 33  1  0  0  0  0
 16 34  1  0  0  0  0
 16 35  1  0  0  0  0
 16 36  1  0  0  0  0
 18 37  1  0  0  0  0
 18 38  1  0  0  0  0
 19 39  1  0  0  0  0
 19 40  1  0  0  0  0
 19 41  1  0  0  0  0
M  END
