 xtb: 6.7.1 (edcfbbe)
          04092507313D

 38 37  0     0  0            999 V2000
    4.9189   -3.7181   -1.8117 C   0  0  0  0  0  0  0  0  0  0  0  0
    4.0841   -2.8935   -0.8524 C   0  0  0  0  0  0  0  0  0  0  0  0
    3.1567   -2.1096   -1.6310 O   0  0  0  0  0  0  0  0  0  0  0  0
    2.3703   -1.2745   -0.9934 C   0  0  0  0  0  0  0  0  0  0  0  0
    2.3670   -1.1226    0.2123 O   0  0  0  0  0  0  0  0  0  0  0  0
    1.4713   -0.5022   -1.9349 C   0  0  0  0  0  0  0  0  0  0  0  0
    0.4164    0.2444   -1.1302 C   0  0  0  0  0  0  0  0  0  0  0  0
   -0.1267    0.9532   -1.7649 H   0  0  0  0  0  0  0  0  0  0  0  0
    1.0858    1.0421   -0.0226 C   0  0  0  0  0  0  0  0  0  0  0  0
    2.0537    1.7380   -0.2310 O   0  0  0  0  0  0  0  0  0  0  0  0
    0.4656    0.9323    1.1340 O   0  0  0  0  0  0  0  0  0  0  0  0
    0.9919    1.6601    2.2605 C   0  0  0  0  0  0  0  0  0  0  0  0
    0.3848    3.0499    2.3440 C   0  0  0  0  0  0  0  0  0  0  0  0
   -0.8060   -0.9298   -0.4583 S   0  0  0  0  0  0  0  0  0  0  0  0
   -2.1856    0.4846    0.3268 P   0  0  0  0  0  0  0  0  0  0  0  0
   -2.1291    2.2811   -0.4474 S   0  0  0  0  0  0  0  0  0  0  0  0
   -3.5802   -0.2763    0.1090 O   0  0  0  0  0  0  0  0  0  0  0  0
   -4.1165   -0.4791   -1.2029 C   0  0  0  0  0  0  0  0  0  0  0  0
   -2.1258    0.4817    1.9051 O   0  0  0  0  0  0  0  0  0  0  0  0
   -2.1563   -0.7369    2.6723 C   0  0  0  0  0  0  0  0  0  0  0  0
    5.6212   -4.3220   -1.2472 H   0  0  0  0  0  0  0  0  0  0  0  0
    4.2767   -4.3674   -2.3986 H   0  0  0  0  0  0  0  0  0  0  0  0
    5.4667   -3.0654   -2.4845 H   0  0  0  0  0  0  0  0  0  0  0  0
    4.6979   -2.2100   -0.2575 H   0  0  0  0  0  0  0  0  0  0  0  0
    3.5081   -3.5232   -0.1675 H   0  0  0  0  0  0  0  0  0  0  0  0
    1.0179   -1.1827   -2.6547 H   0  0  0  0  0  0  0  0  0  0  0  0
    2.0926    0.2184   -2.4716 H   0  0  0  0  0  0  0  0  0  0  0  0
    0.7240    1.0544    3.1264 H   0  0  0  0  0  0  0  0  0  0  0  0
    2.0785    1.7090    2.1486 H   0  0  0  0  0  0  0  0  0  0  0  0
   -0.6999    2.9812    2.3891 H   0  0  0  0  0  0  0  0  0  0  0  0
    0.7523    3.5496    3.2338 H   0  0  0  0  0  0  0  0  0  0  0  0
    0.6586    3.6329    1.4671 H   0  0  0  0  0  0  0  0  0  0  0  0
   -4.1192    0.4616   -1.7558 H   0  0  0  0  0  0  0  0  0  0  0  0
   -5.1329   -0.8334   -1.0515 H   0  0  0  0  0  0  0  0  0  0  0  0
   -3.5233   -1.2230   -1.7341 H   0  0  0  0  0  0  0  0  0  0  0  0
   -2.1403   -0.4188    3.7115 H   0  0  0  0  0  0  0  0  0  0  0  0
   -1.2791   -1.3409    2.4396 H   0  0  0  0  0  0  0  0  0  0  0  0
   -3.0646   -1.2947    2.4529 H   0  0  0  0  0  0  0  0  0  0  0  0
  1  2  1  0  0  0  0
  2  3  1  0  0  0  0
  3  4  4  0  0  0  0
  4  5  2  0  0  0  0
  4  6  1  0  0  0  0
  6  7  1  0  0  0  0
  7  8  1  0  0  0  0
  7  9  1  0  0  0  0
  9 10  2  0  0  0  0
  9 11  1  0  0  0  0
 11 12  1  0  0  0  0
 12 13  1  0  0  0  0
  7 14  1  0  0  0  0
 14 15  1  0  0  0  0
 15 16  2  0  0  0  0
 15 17  1  0  0  0  0
 17 18  1  0  0  0  0
 15 19  2  0  0  0  0
 19 20  1  0  0  0  0
  1 21  1  0  0  0  0
  1 22  1  0  0  0  0
  1 23  1  0  0  0  0
  2 24  1  0  0  0  0
  2 25  1  0  0  0  0
  6 26  1  0  0  0  0
  6 27  1  0  0  0  0
 12 28  1  0  0  0  0
 12 29  1  0  0  0  0
 13 30  1  0  0  0  0
 13 31  1  0  0  0  0
 13 32  1  0  0  0  0
 18 33  1  0  0  0  0
 18 34  1  0  0  0  0
 18 35  1  0  0  0  0
 20 36  1  0  0  0  0
 20 37  1  0  0  0  0
 20 38  1  0  0  0  0
M  END
