 xtb: 6.7.1 (edcfbbe)
          04092507313D

 38 37  0     0  0            999 V2000
    5.1966   -3.0137   -0.5981 C   0  0  0  0  0  0  0  0  0  0  0  0
    4.8076   -2.0143   -1.6754 C   0  0  0  0  0  0  0  0  0  0  0  0
    3.3853   -2.0452   -1.9144 O   0  0  0  0  0  0  0  0  0  0  0  0
    2.6034   -1.3044   -1.1609 C   0  0  0  0  0  0  0  0  0  0  0  0
    2.9910   -0.5481   -0.2933 O   0  0  0  0  0  0  0  0  0  0  0  0
    1.1426   -1.5137   -1.4939 C   0  0  0  0  0  0  0  0  0  0  0  0
    0.3122   -0.4007   -0.8703 C   0  0  0  0  0  0  0  0  0  0  0  0
    0.4409    0.5562   -1.3819 H   0  0  0  0  0  0  0  0  0  0  0  0
    0.6646   -0.2340    0.5983 C   0  0  0  0  0  0  0  0  0  0  0  0
    0.6440   -1.1513    1.3919 O   0  0  0  0  0  0  0  0  0  0  0  0
    0.9016    1.0228    0.8921 O   0  0  0  0  0  0  0  0  0  0  0  0
    1.2806    1.3583    2.2410 C   0  0  0  0  0  0  0  0  0  0  0  0
    0.7260    2.7285    2.5794 C   0  0  0  0  0  0  0  0  0  0  0  0
   -1.4532   -0.8634   -0.9378 S   0  0  0  0  0  0  0  0  0  0  0  0
   -2.2020    0.8298    0.1069 P   0  0  0  0  0  0  0  0  0  0  0  0
   -1.5860    2.5765   -0.5097 S   0  0  0  0  0  0  0  0  0  0  0  0
   -3.7777    0.5924    0.0119 O   0  0  0  0  0  0  0  0  0  0  0  0
   -4.4754    0.7696   -1.2285 C   0  0  0  0  0  0  0  0  0  0  0  0
   -1.9547    0.5964    1.6531 O   0  0  0  0  0  0  0  0  0  0  0  0
   -2.3983   -0.5822    2.3586 C   0  0  0  0  0  0  0  0  0  0  0  0
    4.7350   -2.7413    0.3488 H   0  0  0  0  0  0  0  0  0  0  0  0
    4.8690   -4.0113   -0.8769 H   0  0  0  0  0  0  0  0  0  0  0  0
    6.2748   -3.0105   -0.4779 H   0  0  0  0  0  0  0  0  0  0  0  0
    5.2490   -2.2728   -2.6377 H   0  0  0  0  0  0  0  0  0  0  0  0
    5.0902   -0.9988   -1.3838 H   0  0  0  0  0  0  0  0  0  0  0  0
    0.8466   -2.4741   -1.0617 H   0  0  0  0  0  0  0  0  0  0  0  0
    1.0010   -1.5649   -2.5723 H   0  0  0  0  0  0  0  0  0  0  0  0
    0.8951    0.5833    2.9103 H   0  0  0  0  0  0  0  0  0  0  0  0
    2.3741    1.3471    2.2676 H   0  0  0  0  0  0  0  0  0  0  0  0
    1.0927    3.4630    1.8682 H   0  0  0  0  0  0  0  0  0  0  0  0
   -0.3602    2.7151    2.5293 H   0  0  0  0  0  0  0  0  0  0  0  0
    1.0378    3.0041    3.5811 H   0  0  0  0  0  0  0  0  0  0  0  0
   -4.1742    1.7083   -1.6956 H   0  0  0  0  0  0  0  0  0  0  0  0
   -5.5305    0.7944   -0.9684 H   0  0  0  0  0  0  0  0  0  0  0  0
   -4.2600   -0.0649   -1.8948 H   0  0  0  0  0  0  0  0  0  0  0  0
   -3.3226   -0.9598    1.9277 H   0  0  0  0  0  0  0  0  0  0  0  0
   -2.5557   -0.2631    3.3857 H   0  0  0  0  0  0  0  0  0  0  0  0
   -1.6138   -1.3385    2.3096 H   0  0  0  0  0  0  0  0  0  0  0  0
  1  2  1  0  0  0  0
  2  3  1  0  0  0  0
  3  4  4  0  0  0  0
  4  5  2  0  0  0  0
  4  6  1  0  0  0  0
  6  7  1  0  0  0  0
  7  8  1  0  0  0  0
  7  9  1  0  0  0  0
  9 10  2  0  0  0  0
  9 11  1  0  0  0  0
 11 12  1  0  0  0  0
 12 13  1  0  0  0  0
  7 14  1  0  0  0  0
 14 15  1  0  0  0  0
 15 16  2  0  0  0  0
 15 17  2  0  0  0  0
 17 18  1  0  0  0  0
 15 19  2  0  0  0  0
 19 20  1  0  0  0  0
  1 21  1  0  0  0  0
  1 22  1  0  0  0  0
  1 23  1  0  0  0  0
  2 24  1  0  0  0  0
  2 25  1  0  0  0  0
  6 26  1  0  0  0  0
  6 27  1  0  0  0  0
 12 28  1  0  0  0  0
 12 29  1  0  0  0  0
 13 30  1  0  0  0  0
 13 31  1  0  0  0  0
 13 32  1  0  0  0  0
 18 33  1  0  0  0  0
 18 34  1  0  0  0  0
 18 35  1  0  0  0  0
 20 36  1  0  0  0  0
 20 37  1  0  0  0  0
 20 38  1  0  0  0  0
M  END
