 xtb: 6.7.1 (edcfbbe)
          04092505213D

 41 40  0     0  0            999 V2000
    3.9102   -1.9174   -2.3520 C   0  0  0  0  0  0  0  0  0  0  0  0
    4.0198   -0.4114   -2.2332 C   0  0  0  0  0  0  0  0  0  0  0  0
    3.4747    0.0857   -0.9962 O   0  0  0  0  0  0  0  0  0  0  0  0
    1.9276    0.0036   -0.6396 P   0  0  0  0  0  0  0  0  0  0  0  0
    0.7041    0.3470   -2.1237 S   0  0  0  0  0  0  0  0  0  0  0  0
    1.8076    1.0618    0.5230 O   0  0  0  0  0  0  0  0  0  0  0  0
    2.7047    1.1179    1.6647 C   0  0  0  0  0  0  0  0  0  0  0  0
    1.9878    0.6683    2.9218 C   0  0  0  0  0  0  0  0  0  0  0  0
    1.7108   -1.9015    0.2686 S   0  0  0  0  0  0  0  0  0  0  0  0
   -0.0951   -1.9634    0.2159 C   0  0  0  0  0  0  0  0  0  0  0  0
   -0.9017   -0.9712    1.5216 S   0  0  0  0  0  0  0  0  0  0  0  0
   -1.8345    0.6337    0.5268 P   0  0  0  0  0  0  0  0  0  0  0  0
   -1.0198    2.3910    0.2549 S   0  0  0  0  0  0  0  0  0  0  0  0
   -3.1207    0.8809    1.4301 O   0  0  0  0  0  0  0  0  0  0  0  0
   -4.0471   -0.1637    1.8149 C   0  0  0  0  0  0  0  0  0  0  0  0
   -3.8920   -0.4898    3.2870 C   0  0  0  0  0  0  0  0  0  0  0  0
   -2.3346   -0.1483   -0.7764 O   0  0  0  0  0  0  0  0  0  0  0  0
   -2.8278    0.5515   -1.9366 C   0  0  0  0  0  0  0  0  0  0  0  0
   -2.7964   -0.4084   -3.1072 C   0  0  0  0  0  0  0  0  0  0  0  0
    4.3185   -2.3990   -1.4671 H   0  0  0  0  0  0  0  0  0  0  0  0
    2.8673   -2.2087   -2.4635 H   0  0  0  0  0  0  0  0  0  0  0  0
    4.4615   -2.2445   -3.2277 H   0  0  0  0  0  0  0  0  0  0  0  0
    3.4982    0.0800   -3.0602 H   0  0  0  0  0  0  0  0  0  0  0  0
    5.0597   -0.0826   -2.2037 H   0  0  0  0  0  0  0  0  0  0  0  0
    3.5827    0.5028    1.4585 H   0  0  0  0  0  0  0  0  0  0  0  0
    2.9952    2.1677    1.7297 H   0  0  0  0  0  0  0  0  0  0  0  0
    1.7466   -0.3913    2.8768 H   0  0  0  0  0  0  0  0  0  0  0  0
    2.6300    0.8512    3.7773 H   0  0  0  0  0  0  0  0  0  0  0  0
    1.0650    1.2322    3.0414 H   0  0  0  0  0  0  0  0  0  0  0  0
   -0.3724   -2.9976    0.3998 H   0  0  0  0  0  0  0  0  0  0  0  0
   -0.4414   -1.6187   -0.7584 H   0  0  0  0  0  0  0  0  0  0  0  0
   -5.0357    0.2493    1.6056 H   0  0  0  0  0  0  0  0  0  0  0  0
   -3.8767   -1.0446    1.1905 H   0  0  0  0  0  0  0  0  0  0  0  0
   -4.0174    0.4119    3.8798 H   0  0  0  0  0  0  0  0  0  0  0  0
   -4.6477   -1.2151    3.5710 H   0  0  0  0  0  0  0  0  0  0  0  0
   -2.9054   -0.9036    3.4829 H   0  0  0  0  0  0  0  0  0  0  0  0
   -3.8428    0.8952   -1.7193 H   0  0  0  0  0  0  0  0  0  0  0  0
   -2.1888    1.4226   -2.1166 H   0  0  0  0  0  0  0  0  0  0  0  0
   -3.3644   -1.3035   -2.8711 H   0  0  0  0  0  0  0  0  0  0  0  0
   -3.2299    0.0789   -3.9740 H   0  0  0  0  0  0  0  0  0  0  0  0
   -1.7681   -0.6811   -3.3312 H   0  0  0  0  0  0  0  0  0  0  0  0
  1  2  1  0  0  0  0
  2  3  1  0  0  0  0
  3  4  2  0  0  0  0
  4  5  2  0  0  0  0
  4  6  2  0  0  0  0
  6  7  1  0  0  0  0
  7  8  1  0  0  0  0
  4  9  1  0  0  0  0
  9 10  1  0  0  0  0
 10 11  1  0  0  0  0
 11 12  1  0  0  0  0
 12 13  2  0  0  0  0
 12 14  2  0  0  0  0
 14 15  1  0  0  0  0
 15 16  1  0  0  0  0
 12 17  1  0  0  0  0
 17 18  1  0  0  0  0
 18 19  1  0  0  0  0
  1 20  1  0  0  0  0
  1 21  1  0  0  0  0
  1 22  1  0  0  0  0
  2 23  1  0  0  0  0
  2 24  1  0  0  0  0
  7 25  1  0  0  0  0
  7 26  1  0  0  0  0
  8 27  1  0  0  0  0
  8 28  1  0  0  0  0
  8 29  1  0  0  0  0
 10 30  1  0  0  0  0
 10 31  1  0  0  0  0
 15 32  1  0  0  0  0
 15 33  1  0  0  0  0
 16 34  1  0  0  0  0
 16 35  1  0  0  0  0
 16 36  1  0  0  0  0
 18 37  1  0  0  0  0
 18 38  1  0  0  0  0
 19 39  1  0  0  0  0
 19 40  1  0  0  0  0
 19 41  1  0  0  0  0
M  END
