 xtb: 6.7.1 (edcfbbe)
          04092505203D

 41 40  0     0  0            999 V2000
    5.2325   -0.6185   -1.4928 C   0  0  0  0  0  0  0  0  0  0  0  0
    4.3800   -0.8065   -0.2529 C   0  0  0  0  0  0  0  0  0  0  0  0
    3.5513    0.3454   -0.0097 O   0  0  0  0  0  0  0  0  0  0  0  0
    2.0541    0.4658   -0.5429 P   0  0  0  0  0  0  0  0  0  0  0  0
    1.8453    0.2970   -2.4816 S   0  0  0  0  0  0  0  0  0  0  0  0
    1.6696    1.8959   -0.0166 O   0  0  0  0  0  0  0  0  0  0  0  0
    1.3058    2.2630    1.3350 C   0  0  0  0  0  0  0  0  0  0  0  0
    2.3090    1.8031    2.3701 C   0  0  0  0  0  0  0  0  0  0  0  0
    1.0579   -1.0123    0.6162 S   0  0  0  0  0  0  0  0  0  0  0  0
   -0.0097   -1.7881   -0.6394 C   0  0  0  0  0  0  0  0  0  0  0  0
   -1.7104   -1.9836   -0.0736 S   0  0  0  0  0  0  0  0  0  0  0  0
   -2.1643    0.0753    0.2154 P   0  0  0  0  0  0  0  0  0  0  0  0
   -1.3496    1.3271   -1.0577 S   0  0  0  0  0  0  0  0  0  0  0  0
   -1.7408    0.4785    1.6799 O   0  0  0  0  0  0  0  0  0  0  0  0
   -2.2020   -0.2027    2.8788 C   0  0  0  0  0  0  0  0  0  0  0  0
   -1.0893   -1.0417    3.4737 C   0  0  0  0  0  0  0  0  0  0  0  0
   -3.7471    0.0674    0.3473 O   0  0  0  0  0  0  0  0  0  0  0  0
   -4.6595   -0.5824   -0.5577 C   0  0  0  0  0  0  0  0  0  0  0  0
   -4.4755   -0.1381   -1.9933 C   0  0  0  0  0  0  0  0  0  0  0  0
    4.6012   -0.5291   -2.3743 H   0  0  0  0  0  0  0  0  0  0  0  0
    5.8299    0.2843   -1.4008 H   0  0  0  0  0  0  0  0  0  0  0  0
    5.8886   -1.4749   -1.6099 H   0  0  0  0  0  0  0  0  0  0  0  0
    4.9989   -0.8920    0.6425 H   0  0  0  0  0  0  0  0  0  0  0  0
    3.7470   -1.6938   -0.3446 H   0  0  0  0  0  0  0  0  0  0  0  0
    1.2447    3.3514    1.2845 H   0  0  0  0  0  0  0  0  0  0  0  0
    0.3097    1.8560    1.5351 H   0  0  0  0  0  0  0  0  0  0  0  0
    3.3025    2.1608    2.1123 H   0  0  0  0  0  0  0  0  0  0  0  0
    2.0215    2.2021    3.3382 H   0  0  0  0  0  0  0  0  0  0  0  0
    2.3281    0.7156    2.4247 H   0  0  0  0  0  0  0  0  0  0  0  0
    0.3563   -2.7922   -0.8397 H   0  0  0  0  0  0  0  0  0  0  0  0
    0.0231   -1.1697   -1.5415 H   0  0  0  0  0  0  0  0  0  0  0  0
   -2.4987    0.6021    3.5530 H   0  0  0  0  0  0  0  0  0  0  0  0
   -3.0725   -0.8121    2.6297 H   0  0  0  0  0  0  0  0  0  0  0  0
   -0.2144   -0.4265    3.6629 H   0  0  0  0  0  0  0  0  0  0  0  0
   -1.4354   -1.4703    4.4087 H   0  0  0  0  0  0  0  0  0  0  0  0
   -0.8064   -1.8445    2.7972 H   0  0  0  0  0  0  0  0  0  0  0  0
   -4.5200   -1.6631   -0.4663 H   0  0  0  0  0  0  0  0  0  0  0  0
   -5.6420   -0.2995   -0.1760 H   0  0  0  0  0  0  0  0  0  0  0  0
   -4.5556    0.9439   -2.0695 H   0  0  0  0  0  0  0  0  0  0  0  0
   -3.4916   -0.4328   -2.3566 H   0  0  0  0  0  0  0  0  0  0  0  0
   -5.2348   -0.6002   -2.6159 H   0  0  0  0  0  0  0  0  0  0  0  0
  1  2  1  0  0  0  0
  2  3  1  0  0  0  0
  3  4  2  0  0  0  0
  4  5  2  0  0  0  0
  4  6  2  0  0  0  0
  6  7  1  0  0  0  0
  7  8  1  0  0  0  0
  4  9  1  0  0  0  0
  9 10  1  0  0  0  0
 10 11  1  0  0  0  0
 11 12  1  0  0  0  0
 12 13  2  0  0  0  0
 12 14  2  0  0  0  0
 14 15  1  0  0  0  0
 15 16  1  0  0  0  0
 12 17  2  0  0  0  0
 17 18  1  0  0  0  0
 18 19  1  0  0  0  0
  1 20  1  0  0  0  0
  1 21  1  0  0  0  0
  1 22  1  0  0  0  0
  2 23  1  0  0  0  0
  2 24  1  0  0  0  0
  7 25  1  0  0  0  0
  7 26  1  0  0  0  0
  8 27  1  0  0  0  0
  8 28  1  0  0  0  0
  8 29  1  0  0  0  0
 10 30  1  0  0  0  0
 10 31  1  0  0  0  0
 15 32  1  0  0  0  0
 15 33  1  0  0  0  0
 16 34  1  0  0  0  0
 16 35  1  0  0  0  0
 16 36  1  0  0  0  0
 18 37  1  0  0  0  0
 18 38  1  0  0  0  0
 19 39  1  0  0  0  0
 19 40  1  0  0  0  0
 19 41  1  0  0  0  0
M  END
