 xtb: 6.7.1 (edcfbbe)
          04092507313D

 38 37  0     0  0            999 V2000
    3.0841   -4.4355   -0.9886 C   0  0  0  0  0  0  0  0  0  0  0  0
    3.8296   -3.1941   -1.4520 C   0  0  0  0  0  0  0  0  0  0  0  0
    3.4898   -2.0593   -0.6316 O   0  0  0  0  0  0  0  0  0  0  0  0
    2.4270   -1.3487   -0.9530 C   0  0  0  0  0  0  0  0  0  0  0  0
    1.7223   -1.5551   -1.9152 O   0  0  0  0  0  0  0  0  0  0  0  0
    2.2149   -0.2141    0.0331 C   0  0  0  0  0  0  0  0  0  0  0  0
    0.7861    0.2970   -0.0513 C   0  0  0  0  0  0  0  0  0  0  0  0
    0.5158    0.4545   -1.1043 H   0  0  0  0  0  0  0  0  0  0  0  0
    0.5388    1.5998    0.6813 C   0  0  0  0  0  0  0  0  0  0  0  0
   -0.4737    1.8002    1.3227 O   0  0  0  0  0  0  0  0  0  0  0  0
    1.5009    2.4647    0.5187 O   0  0  0  0  0  0  0  0  0  0  0  0
    1.3332    3.7727    1.1116 C   0  0  0  0  0  0  0  0  0  0  0  0
    2.6036    4.5612    0.8679 C   0  0  0  0  0  0  0  0  0  0  0  0
   -0.3831   -0.9369    0.6162 S   0  0  0  0  0  0  0  0  0  0  0  0
   -2.1839    0.0895    0.1533 P   0  0  0  0  0  0  0  0  0  0  0  0
   -2.1315    1.4235   -1.2782 S   0  0  0  0  0  0  0  0  0  0  0  0
   -3.1370   -1.1569   -0.2103 O   0  0  0  0  0  0  0  0  0  0  0  0
   -2.9448   -1.9076   -1.4107 C   0  0  0  0  0  0  0  0  0  0  0  0
   -2.9048    0.5722    1.4707 O   0  0  0  0  0  0  0  0  0  0  0  0
   -3.0751   -0.2823    2.6185 C   0  0  0  0  0  0  0  0  0  0  0  0
    3.2984   -4.6320    0.0581 H   0  0  0  0  0  0  0  0  0  0  0  0
    2.0125   -4.2932   -1.1089 H   0  0  0  0  0  0  0  0  0  0  0  0
    3.3965   -5.2863   -1.5851 H   0  0  0  0  0  0  0  0  0  0  0  0
    3.5842   -2.9600   -2.4918 H   0  0  0  0  0  0  0  0  0  0  0  0
    4.9068   -3.3069   -1.3303 H   0  0  0  0  0  0  0  0  0  0  0  0
    2.8993    0.5966   -0.2263 H   0  0  0  0  0  0  0  0  0  0  0  0
    2.4545   -0.5684    1.0353 H   0  0  0  0  0  0  0  0  0  0  0  0
    0.4613    4.2439    0.6477 H   0  0  0  0  0  0  0  0  0  0  0  0
    1.1276    3.6410    2.1780 H   0  0  0  0  0  0  0  0  0  0  0  0
    2.4917    5.5541    1.2902 H   0  0  0  0  0  0  0  0  0  0  0  0
    3.4483    4.0659    1.3367 H   0  0  0  0  0  0  0  0  0  0  0  0
    2.7900    4.6457   -0.1983 H   0  0  0  0  0  0  0  0  0  0  0  0
   -2.0085   -2.4646   -1.3594 H   0  0  0  0  0  0  0  0  0  0  0  0
   -2.9261   -1.2378   -2.2721 H   0  0  0  0  0  0  0  0  0  0  0  0
   -3.7922   -2.5851   -1.4723 H   0  0  0  0  0  0  0  0  0  0  0  0
   -3.5220    0.3543    3.3776 H   0  0  0  0  0  0  0  0  0  0  0  0
   -2.1059   -0.6550    2.9503 H   0  0  0  0  0  0  0  0  0  0  0  0
   -3.7323   -1.1130    2.3672 H   0  0  0  0  0  0  0  0  0  0  0  0
  1  2  1  0  0  0  0
  2  3  1  0  0  0  0
  3  4  1  0  0  0  0
  4  5  2  0  0  0  0
  4  6  1  0  0  0  0
  6  7  1  0  0  0  0
  7  8  1  0  0  0  0
  7  9  1  0  0  0  0
  9 10  2  0  0  0  0
  9 11  4  0  0  0  0
 11 12  1  0  0  0  0
 12 13  1  0  0  0  0
  7 14  1  0  0  0  0
 14 15  1  0  0  0  0
 15 16  2  0  0  0  0
 15 17  1  0  0  0  0
 17 18  1  0  0  0  0
 15 19  2  0  0  0  0
 19 20  1  0  0  0  0
  1 21  1  0  0  0  0
  1 22  1  0  0  0  0
  1 23  1  0  0  0  0
  2 24  1  0  0  0  0
  2 25  1  0  0  0  0
  6 26  1  0  0  0  0
  6 27  1  0  0  0  0
 12 28  1  0  0  0  0
 12 29  1  0  0  0  0
 13 30  1  0  0  0  0
 13 31  1  0  0  0  0
 13 32  1  0  0  0  0
 18 33  1  0  0  0  0
 18 34  1  0  0  0  0
 18 35  1  0  0  0  0
 20 36  1  0  0  0  0
 20 37  1  0  0  0  0
 20 38  1  0  0  0  0
M  END
