 xtb: 6.7.1 (edcfbbe)
          04092505203D

 41 40  0     0  0            999 V2000
    5.2337   -1.2507   -0.8268 C   0  0  0  0  0  0  0  0  0  0  0  0
    3.8630   -1.8301   -1.1199 C   0  0  0  0  0  0  0  0  0  0  0  0
    2.9283   -1.5178   -0.0678 O   0  0  0  0  0  0  0  0  0  0  0  0
    2.0320   -0.2078   -0.0649 P   0  0  0  0  0  0  0  0  0  0  0  0
    2.9469    1.5287   -0.1265 S   0  0  0  0  0  0  0  0  0  0  0  0
    1.1456   -0.4861    1.2129 O   0  0  0  0  0  0  0  0  0  0  0  0
    1.3153    0.2417    2.4449 C   0  0  0  0  0  0  0  0  0  0  0  0
    2.5575   -0.2171    3.1787 C   0  0  0  0  0  0  0  0  0  0  0  0
    0.6814   -0.5811   -1.6585 S   0  0  0  0  0  0  0  0  0  0  0  0
    0.0591    1.1148   -1.8005 C   0  0  0  0  0  0  0  0  0  0  0  0
   -0.7593    1.7055   -0.2979 S   0  0  0  0  0  0  0  0  0  0  0  0
   -2.3290    0.2766   -0.2910 P   0  0  0  0  0  0  0  0  0  0  0  0
   -3.0635   -0.2055   -2.0335 S   0  0  0  0  0  0  0  0  0  0  0  0
   -3.4304    0.9020    0.6570 O   0  0  0  0  0  0  0  0  0  0  0  0
   -3.2388    1.1677    2.0694 C   0  0  0  0  0  0  0  0  0  0  0  0
   -2.8274    2.6069    2.3051 C   0  0  0  0  0  0  0  0  0  0  0  0
   -1.6730   -0.9082    0.5588 O   0  0  0  0  0  0  0  0  0  0  0  0
   -1.7849   -2.2955    0.1972 C   0  0  0  0  0  0  0  0  0  0  0  0
   -3.0991   -2.8723    0.6825 C   0  0  0  0  0  0  0  0  0  0  0  0
    5.9233   -1.5522   -1.6086 H   0  0  0  0  0  0  0  0  0  0  0  0
    5.1872   -0.1644   -0.7951 H   0  0  0  0  0  0  0  0  0  0  0  0
    5.5957   -1.6137    0.1311 H   0  0  0  0  0  0  0  0  0  0  0  0
    3.8900   -2.9213   -1.1417 H   0  0  0  0  0  0  0  0  0  0  0  0
    3.4724   -1.4578   -2.0716 H   0  0  0  0  0  0  0  0  0  0  0  0
    1.3682    1.3117    2.2180 H   0  0  0  0  0  0  0  0  0  0  0  0
    0.4054    0.0278    3.0074 H   0  0  0  0  0  0  0  0  0  0  0  0
    2.5201   -1.2898    3.3478 H   0  0  0  0  0  0  0  0  0  0  0  0
    3.4388    0.0139    2.5813 H   0  0  0  0  0  0  0  0  0  0  0  0
    2.6286    0.3001    4.1302 H   0  0  0  0  0  0  0  0  0  0  0  0
   -0.6514    1.1153   -2.6266 H   0  0  0  0  0  0  0  0  0  0  0  0
    0.8896    1.7959   -1.9851 H   0  0  0  0  0  0  0  0  0  0  0  0
   -4.2146    0.9594    2.5116 H   0  0  0  0  0  0  0  0  0  0  0  0
   -2.4960    0.4700    2.4625 H   0  0  0  0  0  0  0  0  0  0  0  0
   -1.8497    2.8048    1.8698 H   0  0  0  0  0  0  0  0  0  0  0  0
   -3.5510    3.2790    1.8523 H   0  0  0  0  0  0  0  0  0  0  0  0
   -2.7849    2.7928    3.3737 H   0  0  0  0  0  0  0  0  0  0  0  0
   -1.6994   -2.3875   -0.8903 H   0  0  0  0  0  0  0  0  0  0  0  0
   -0.9245   -2.7692    0.6734 H   0  0  0  0  0  0  0  0  0  0  0  0
   -3.9260   -2.3512    0.2012 H   0  0  0  0  0  0  0  0  0  0  0  0
   -3.1467   -3.9252    0.4238 H   0  0  0  0  0  0  0  0  0  0  0  0
   -3.1893   -2.7607    1.7597 H   0  0  0  0  0  0  0  0  0  0  0  0
  1  2  1  0  0  0  0
  2  3  1  0  0  0  0
  3  4  2  0  0  0  0
  4  5  2  0  0  0  0
  4  6  2  0  0  0  0
  6  7  1  0  0  0  0
  7  8  1  0  0  0  0
  4  9  1  0  0  0  0
  9 10  1  0  0  0  0
 10 11  1  0  0  0  0
 11 12  1  0  0  0  0
 12 13  2  0  0  0  0
 12 14  2  0  0  0  0
 14 15  1  0  0  0  0
 15 16  1  0  0  0  0
 12 17  1  0  0  0  0
 17 18  1  0  0  0  0
 18 19  1  0  0  0  0
  1 20  1  0  0  0  0
  1 21  1  0  0  0  0
  1 22  1  0  0  0  0
  2 23  1  0  0  0  0
  2 24  1  0  0  0  0
  7 25  1  0  0  0  0
  7 26  1  0  0  0  0
  8 27  1  0  0  0  0
  8 28  1  0  0  0  0
  8 29  1  0  0  0  0
 10 30  1  0  0  0  0
 10 31  1  0  0  0  0
 15 32  1  0  0  0  0
 15 33  1  0  0  0  0
 16 34  1  0  0  0  0
 16 35  1  0  0  0  0
 16 36  1  0  0  0  0
 18 37  1  0  0  0  0
 18 38  1  0  0  0  0
 19 39  1  0  0  0  0
 19 40  1  0  0  0  0
 19 41  1  0  0  0  0
M  END
