 xtb: 6.7.1 (edcfbbe)
          04092505203D

 41 40  0     0  0            999 V2000
    3.0258    2.2609   -1.9254 C   0  0  0  0  0  0  0  0  0  0  0  0
    3.8121    1.9708   -0.6626 C   0  0  0  0  0  0  0  0  0  0  0  0
    3.6466    0.6100   -0.2336 O   0  0  0  0  0  0  0  0  0  0  0  0
    2.2915    0.0851    0.4154 P   0  0  0  0  0  0  0  0  0  0  0  0
    1.5080    1.3640    1.6807 S   0  0  0  0  0  0  0  0  0  0  0  0
    2.7570   -1.2988    1.0219 O   0  0  0  0  0  0  0  0  0  0  0  0
    2.8933   -1.5481    2.4399 C   0  0  0  0  0  0  0  0  0  0  0  0
    1.7997   -2.4854    2.9125 C   0  0  0  0  0  0  0  0  0  0  0  0
    1.1969   -0.5923   -1.2718 S   0  0  0  0  0  0  0  0  0  0  0  0
    0.1343   -1.8120   -0.4484 C   0  0  0  0  0  0  0  0  0  0  0  0
   -1.0214   -1.0850    0.7389 S   0  0  0  0  0  0  0  0  0  0  0  0
   -2.2161   -0.0506   -0.6953 P   0  0  0  0  0  0  0  0  0  0  0  0
   -2.3670   -0.9049   -2.4464 S   0  0  0  0  0  0  0  0  0  0  0  0
   -1.6131    1.4038   -0.7897 O   0  0  0  0  0  0  0  0  0  0  0  0
   -1.6700    2.3575    0.3031 C   0  0  0  0  0  0  0  0  0  0  0  0
   -0.9020    3.5888   -0.1255 C   0  0  0  0  0  0  0  0  0  0  0  0
   -3.5840    0.2124    0.0718 O   0  0  0  0  0  0  0  0  0  0  0  0
   -4.6751   -0.7277    0.0530 C   0  0  0  0  0  0  0  0  0  0  0  0
   -4.3326   -2.0260    0.7540 C   0  0  0  0  0  0  0  0  0  0  0  0
    3.2234    3.2771   -2.2511 H   0  0  0  0  0  0  0  0  0  0  0  0
    3.3061    1.5665   -2.7134 H   0  0  0  0  0  0  0  0  0  0  0  0
    1.9575    2.1505   -1.7357 H   0  0  0  0  0  0  0  0  0  0  0  0
    3.4968    2.6319    0.1522 H   0  0  0  0  0  0  0  0  0  0  0  0
    4.8859    2.0704   -0.8258 H   0  0  0  0  0  0  0  0  0  0  0  0
    3.8831   -1.9909    2.5600 H   0  0  0  0  0  0  0  0  0  0  0  0
    2.8472   -0.5958    2.9771 H   0  0  0  0  0  0  0  0  0  0  0  0
    1.9375   -2.6841    3.9703 H   0  0  0  0  0  0  0  0  0  0  0  0
    0.8218   -2.0295    2.7626 H   0  0  0  0  0  0  0  0  0  0  0  0
    1.8421   -3.4236    2.3659 H   0  0  0  0  0  0  0  0  0  0  0  0
    0.7467   -2.5285    0.0924 H   0  0  0  0  0  0  0  0  0  0  0  0
   -0.4298   -2.2916   -1.2494 H   0  0  0  0  0  0  0  0  0  0  0  0
   -2.7191    2.5832    0.5006 H   0  0  0  0  0  0  0  0  0  0  0  0
   -1.2222    1.9016    1.1911 H   0  0  0  0  0  0  0  0  0  0  0  0
    0.1506    3.3480   -0.2485 H   0  0  0  0  0  0  0  0  0  0  0  0
   -1.2929    3.9650   -1.0664 H   0  0  0  0  0  0  0  0  0  0  0  0
   -0.9989    4.3494    0.6422 H   0  0  0  0  0  0  0  0  0  0  0  0
   -5.4810   -0.1956    0.5604 H   0  0  0  0  0  0  0  0  0  0  0  0
   -4.9487   -0.9141   -0.9900 H   0  0  0  0  0  0  0  0  0  0  0  0
   -3.9456   -1.8285    1.7506 H   0  0  0  0  0  0  0  0  0  0  0  0
   -5.2261   -2.6374    0.8279 H   0  0  0  0  0  0  0  0  0  0  0  0
   -3.5804   -2.5696    0.1844 H   0  0  0  0  0  0  0  0  0  0  0  0
  1  2  1  0  0  0  0
  2  3  1  0  0  0  0
  3  4  2  0  0  0  0
  4  5  2  0  0  0  0
  4  6  2  0  0  0  0
  6  7  1  0  0  0  0
  7  8  1  0  0  0  0
  4  9  1  0  0  0  0
  9 10  1  0  0  0  0
 10 11  1  0  0  0  0
 11 12  1  0  0  0  0
 12 13  2  0  0  0  0
 12 14  2  0  0  0  0
 14 15  1  0  0  0  0
 15 16  1  0  0  0  0
 12 17  2  0  0  0  0
 17 18  1  0  0  0  0
 18 19  1  0  0  0  0
  1 20  1  0  0  0  0
  1 21  1  0  0  0  0
  1 22  1  0  0  0  0
  2 23  1  0  0  0  0
  2 24  1  0  0  0  0
  7 25  1  0  0  0  0
  7 26  1  0  0  0  0
  8 27  1  0  0  0  0
  8 28  1  0  0  0  0
  8 29  1  0  0  0  0
 10 30  1  0  0  0  0
 10 31  1  0  0  0  0
 15 32  1  0  0  0  0
 15 33  1  0  0  0  0
 16 34  1  0  0  0  0
 16 35  1  0  0  0  0
 16 36  1  0  0  0  0
 18 37  1  0  0  0  0
 18 38  1  0  0  0  0
 19 39  1  0  0  0  0
 19 40  1  0  0  0  0
 19 41  1  0  0  0  0
M  END
