 xtb: 6.7.1 (edcfbbe)
          04092505203D

 41 40  0     0  0            999 V2000
    3.7773   -1.4584   -2.5523 C   0  0  0  0  0  0  0  0  0  0  0  0
    4.0676   -1.7401   -1.0922 C   0  0  0  0  0  0  0  0  0  0  0  0
    2.8768   -1.7055   -0.2866 O   0  0  0  0  0  0  0  0  0  0  0  0
    2.0770   -0.3637    0.0016 P   0  0  0  0  0  0  0  0  0  0  0  0
    3.1816    1.2345    0.2877 S   0  0  0  0  0  0  0  0  0  0  0  0
    1.1497   -0.8080    1.2057 O   0  0  0  0  0  0  0  0  0  0  0  0
    1.4733   -0.5210    2.5789 C   0  0  0  0  0  0  0  0  0  0  0  0
    2.6525   -1.3426    3.0553 C   0  0  0  0  0  0  0  0  0  0  0  0
    0.6461   -0.2713   -1.5534 S   0  0  0  0  0  0  0  0  0  0  0  0
    0.1305    1.4381   -1.2453 C   0  0  0  0  0  0  0  0  0  0  0  0
   -0.6196    1.6633    0.3871 S   0  0  0  0  0  0  0  0  0  0  0  0
   -2.3095    0.4208    0.0458 P   0  0  0  0  0  0  0  0  0  0  0  0
   -3.0533    0.4826   -1.7714 S   0  0  0  0  0  0  0  0  0  0  0  0
   -3.2618    0.7967    1.2556 O   0  0  0  0  0  0  0  0  0  0  0  0
   -3.6107    2.1337    1.6603 C   0  0  0  0  0  0  0  0  0  0  0  0
   -4.1973    2.9552    0.5307 C   0  0  0  0  0  0  0  0  0  0  0  0
   -1.9090   -1.0302    0.5378 O   0  0  0  0  0  0  0  0  0  0  0  0
   -2.0293   -2.2245   -0.2657 C   0  0  0  0  0  0  0  0  0  0  0  0
   -0.9486   -3.2032    0.1446 C   0  0  0  0  0  0  0  0  0  0  0  0
    3.4491   -0.4270   -2.6755 H   0  0  0  0  0  0  0  0  0  0  0  0
    4.6805   -1.6115   -3.1344 H   0  0  0  0  0  0  0  0  0  0  0  0
    2.9952   -2.1193   -2.9175 H   0  0  0  0  0  0  0  0  0  0  0  0
    4.7759   -1.0069   -0.6935 H   0  0  0  0  0  0  0  0  0  0  0  0
    4.4539   -2.7495   -0.9449 H   0  0  0  0  0  0  0  0  0  0  0  0
    1.6816    0.5503    2.6708 H   0  0  0  0  0  0  0  0  0  0  0  0
    0.5577   -0.7648    3.1200 H   0  0  0  0  0  0  0  0  0  0  0  0
    2.8124   -1.1644    4.1140 H   0  0  0  0  0  0  0  0  0  0  0  0
    2.4666   -2.4003    2.8883 H   0  0  0  0  0  0  0  0  0  0  0  0
    3.5485   -1.0515    2.5080 H   0  0  0  0  0  0  0  0  0  0  0  0
   -0.5962    1.6857   -2.0191 H   0  0  0  0  0  0  0  0  0  0  0  0
    0.9972    2.0973   -1.2821 H   0  0  0  0  0  0  0  0  0  0  0  0
   -4.3383    1.9761    2.4586 H   0  0  0  0  0  0  0  0  0  0  0  0
   -2.7155    2.6143    2.0652 H   0  0  0  0  0  0  0  0  0  0  0  0
   -5.0408    2.4351    0.0827 H   0  0  0  0  0  0  0  0  0  0  0  0
   -4.5294    3.9134    0.9171 H   0  0  0  0  0  0  0  0  0  0  0  0
   -3.4475    3.1245   -0.2408 H   0  0  0  0  0  0  0  0  0  0  0  0
   -3.0241   -2.6374   -0.0814 H   0  0  0  0  0  0  0  0  0  0  0  0
   -1.9475   -1.9560   -1.3243 H   0  0  0  0  0  0  0  0  0  0  0  0
   -1.0304   -3.4222    1.2052 H   0  0  0  0  0  0  0  0  0  0  0  0
   -1.0702   -4.1188   -0.4250 H   0  0  0  0  0  0  0  0  0  0  0  0
    0.0373   -2.7890   -0.0524 H   0  0  0  0  0  0  0  0  0  0  0  0
  1  2  1  0  0  0  0
  2  3  1  0  0  0  0
  3  4  2  0  0  0  0
  4  5  2  0  0  0  0
  4  6  2  0  0  0  0
  6  7  1  0  0  0  0
  7  8  1  0  0  0  0
  4  9  1  0  0  0  0
  9 10  1  0  0  0  0
 10 11  1  0  0  0  0
 11 12  1  0  0  0  0
 12 13  2  0  0  0  0
 12 14  2  0  0  0  0
 14 15  1  0  0  0  0
 15 16  1  0  0  0  0
 12 17  2  0  0  0  0
 17 18  1  0  0  0  0
 18 19  1  0  0  0  0
  1 20  1  0  0  0  0
  1 21  1  0  0  0  0
  1 22  1  0  0  0  0
  2 23  1  0  0  0  0
  2 24  1  0  0  0  0
  7 25  1  0  0  0  0
  7 26  1  0  0  0  0
  8 27  1  0  0  0  0
  8 28  1  0  0  0  0
  8 29  1  0  0  0  0
 10 30  1  0  0  0  0
 10 31  1  0  0  0  0
 15 32  1  0  0  0  0
 15 33  1  0  0  0  0
 16 34  1  0  0  0  0
 16 35  1  0  0  0  0
 16 36  1  0  0  0  0
 18 37  1  0  0  0  0
 18 38  1  0  0  0  0
 19 39  1  0  0  0  0
 19 40  1  0  0  0  0
 19 41  1  0  0  0  0
M  END
