 xtb: 6.7.1 (edcfbbe)
          04092505203D

 41 40  0     0  0            999 V2000
    2.8386    1.9631   -1.7668 C   0  0  0  0  0  0  0  0  0  0  0  0
    3.3727    2.0036   -0.3486 C   0  0  0  0  0  0  0  0  0  0  0  0
    3.3635    0.7013    0.2601 O   0  0  0  0  0  0  0  0  0  0  0  0
    2.0631    0.0871    0.9380 P   0  0  0  0  0  0  0  0  0  0  0  0
    1.0637    1.3327    2.0611 S   0  0  0  0  0  0  0  0  0  0  0  0
    2.6192   -1.1335    1.7667 O   0  0  0  0  0  0  0  0  0  0  0  0
    3.5236   -2.1334    1.2308 C   0  0  0  0  0  0  0  0  0  0  0  0
    4.9643   -1.7703    1.5252 C   0  0  0  0  0  0  0  0  0  0  0  0
    1.0552   -0.8230   -0.7202 S   0  0  0  0  0  0  0  0  0  0  0  0
   -0.1258   -1.8299    0.2135 C   0  0  0  0  0  0  0  0  0  0  0  0
   -1.4828   -0.8841    0.9559 S   0  0  0  0  0  0  0  0  0  0  0  0
   -2.2364   -0.0706   -0.8698 P   0  0  0  0  0  0  0  0  0  0  0  0
   -2.0074   -1.1820   -2.4612 S   0  0  0  0  0  0  0  0  0  0  0  0
   -1.5433    1.3295   -1.0825 O   0  0  0  0  0  0  0  0  0  0  0  0
   -1.6887    2.4386   -0.1568 C   0  0  0  0  0  0  0  0  0  0  0  0
   -0.7400    3.5324   -0.5967 C   0  0  0  0  0  0  0  0  0  0  0  0
   -3.7091    0.3764   -0.4708 O   0  0  0  0  0  0  0  0  0  0  0  0
   -4.6909   -0.4525    0.1797 C   0  0  0  0  0  0  0  0  0  0  0  0
   -4.9176   -1.7686   -0.5338 C   0  0  0  0  0  0  0  0  0  0  0  0
    3.3996    1.2454   -2.3593 H   0  0  0  0  0  0  0  0  0  0  0  0
    1.7897    1.6695   -1.7759 H   0  0  0  0  0  0  0  0  0  0  0  0
    2.9319    2.9480   -2.2131 H   0  0  0  0  0  0  0  0  0  0  0  0
    2.7876    2.6849    0.2788 H   0  0  0  0  0  0  0  0  0  0  0  0
    4.4222    2.3015   -0.3299 H   0  0  0  0  0  0  0  0  0  0  0  0
    3.2382   -3.0568    1.7386 H   0  0  0  0  0  0  0  0  0  0  0  0
    3.3514   -2.2295    0.1554 H   0  0  0  0  0  0  0  0  0  0  0  0
    5.0995   -1.6206    2.5929 H   0  0  0  0  0  0  0  0  0  0  0  0
    5.6076   -2.5789    1.1922 H   0  0  0  0  0  0  0  0  0  0  0  0
    5.2381   -0.8566    1.0050 H   0  0  0  0  0  0  0  0  0  0  0  0
    0.3754   -2.3396    1.0333 H   0  0  0  0  0  0  0  0  0  0  0  0
   -0.5369   -2.5366   -0.5071 H   0  0  0  0  0  0  0  0  0  0  0  0
   -2.7282    2.7687   -0.1889 H   0  0  0  0  0  0  0  0  0  0  0  0
   -1.4470    2.0900    0.8522 H   0  0  0  0  0  0  0  0  0  0  0  0
   -0.8966    4.4057    0.0278 H   0  0  0  0  0  0  0  0  0  0  0  0
    0.2886    3.2009   -0.4851 H   0  0  0  0  0  0  0  0  0  0  0  0
   -0.9211    3.7881   -1.6366 H   0  0  0  0  0  0  0  0  0  0  0  0
   -4.3640   -0.6205    1.2098 H   0  0  0  0  0  0  0  0  0  0  0  0
   -5.5906    0.1653    0.1731 H   0  0  0  0  0  0  0  0  0  0  0  0
   -4.0150   -2.3768   -0.4970 H   0  0  0  0  0  0  0  0  0  0  0  0
   -5.7270   -2.3053   -0.0495 H   0  0  0  0  0  0  0  0  0  0  0  0
   -5.1712   -1.5958   -1.5770 H   0  0  0  0  0  0  0  0  0  0  0  0
  1  2  1  0  0  0  0
  2  3  1  0  0  0  0
  3  4  2  0  0  0  0
  4  5  2  0  0  0  0
  4  6  2  0  0  0  0
  6  7  1  0  0  0  0
  7  8  1  0  0  0  0
  4  9  1  0  0  0  0
  9 10  1  0  0  0  0
 10 11  1  0  0  0  0
 11 12  1  0  0  0  0
 12 13  2  0  0  0  0
 12 14  2  0  0  0  0
 14 15  1  0  0  0  0
 15 16  1  0  0  0  0
 12 17  2  0  0  0  0
 17 18  1  0  0  0  0
 18 19  1  0  0  0  0
  1 20  1  0  0  0  0
  1 21  1  0  0  0  0
  1 22  1  0  0  0  0
  2 23  1  0  0  0  0
  2 24  1  0  0  0  0
  7 25  1  0  0  0  0
  7 26  1  0  0  0  0
  8 27  1  0  0  0  0
  8 28  1  0  0  0  0
  8 29  1  0  0  0  0
 10 30  1  0  0  0  0
 10 31  1  0  0  0  0
 15 32  1  0  0  0  0
 15 33  1  0  0  0  0
 16 34  1  0  0  0  0
 16 35  1  0  0  0  0
 16 36  1  0  0  0  0
 18 37  1  0  0  0  0
 18 38  1  0  0  0  0
 19 39  1  0  0  0  0
 19 40  1  0  0  0  0
 19 41  1  0  0  0  0
M  END
