 xtb: 6.7.1 (edcfbbe)
          04092505203D

 41 40  0     0  0            999 V2000
    5.2630   -1.1225   -2.2478 C   0  0  0  0  0  0  0  0  0  0  0  0
    3.7740   -1.1249   -1.9678 C   0  0  0  0  0  0  0  0  0  0  0  0
    3.5260   -0.2071   -0.8854 O   0  0  0  0  0  0  0  0  0  0  0  0
    2.0424    0.2399   -0.4974 P   0  0  0  0  0  0  0  0  0  0  0  0
    1.0372    1.0146   -1.9844 S   0  0  0  0  0  0  0  0  0  0  0  0
    2.3435    1.2467    0.6653 O   0  0  0  0  0  0  0  0  0  0  0  0
    3.0622    0.8668    1.8697 C   0  0  0  0  0  0  0  0  0  0  0  0
    2.7180    1.8723    2.9471 C   0  0  0  0  0  0  0  0  0  0  0  0
    1.2449   -1.5494    0.3449 S   0  0  0  0  0  0  0  0  0  0  0  0
   -0.2127   -1.8037   -0.7192 C   0  0  0  0  0  0  0  0  0  0  0  0
   -1.7860   -1.7884    0.1701 S   0  0  0  0  0  0  0  0  0  0  0  0
   -2.0353    0.3158    0.3758 P   0  0  0  0  0  0  0  0  0  0  0  0
   -0.7035    1.2298    1.4842 S   0  0  0  0  0  0  0  0  0  0  0  0
   -3.5350    0.4717    0.8734 O   0  0  0  0  0  0  0  0  0  0  0  0
   -3.8926    0.4332    2.2671 C   0  0  0  0  0  0  0  0  0  0  0  0
   -3.6418   -0.9269    2.8842 C   0  0  0  0  0  0  0  0  0  0  0  0
   -2.0840    0.9040   -1.0860 O   0  0  0  0  0  0  0  0  0  0  0  0
   -3.2307    0.9155   -1.9715 C   0  0  0  0  0  0  0  0  0  0  0  0
   -3.6892   -0.4737   -2.3616 C   0  0  0  0  0  0  0  0  0  0  0  0
    5.5870   -0.1243   -2.5287 H   0  0  0  0  0  0  0  0  0  0  0  0
    5.8078   -1.4333   -1.3612 H   0  0  0  0  0  0  0  0  0  0  0  0
    5.4733   -1.8102   -3.0601 H   0  0  0  0  0  0  0  0  0  0  0  0
    3.4271   -2.1161   -1.6610 H   0  0  0  0  0  0  0  0  0  0  0  0
    3.1993   -0.7954   -2.8399 H   0  0  0  0  0  0  0  0  0  0  0  0
    2.7526   -0.1428    2.1558 H   0  0  0  0  0  0  0  0  0  0  0  0
    4.1275    0.8694    1.6313 H   0  0  0  0  0  0  0  0  0  0  0  0
    3.2279    1.6009    3.8654 H   0  0  0  0  0  0  0  0  0  0  0  0
    3.0232    2.8684    2.6400 H   0  0  0  0  0  0  0  0  0  0  0  0
    1.6432    1.8755    3.1148 H   0  0  0  0  0  0  0  0  0  0  0  0
   -0.1290   -2.7966   -1.1525 H   0  0  0  0  0  0  0  0  0  0  0  0
   -0.2119   -1.0251   -1.4883 H   0  0  0  0  0  0  0  0  0  0  0  0
   -3.3202    1.2049    2.7910 H   0  0  0  0  0  0  0  0  0  0  0  0
   -4.9529    0.6898    2.2680 H   0  0  0  0  0  0  0  0  0  0  0  0
   -4.0374   -0.9401    3.8946 H   0  0  0  0  0  0  0  0  0  0  0  0
   -4.1211   -1.7059    2.2968 H   0  0  0  0  0  0  0  0  0  0  0  0
   -2.5714   -1.1246    2.9225 H   0  0  0  0  0  0  0  0  0  0  0  0
   -4.0323    1.4689   -1.4791 H   0  0  0  0  0  0  0  0  0  0  0  0
   -2.8638    1.4758   -2.8334 H   0  0  0  0  0  0  0  0  0  0  0  0
   -4.0646   -1.0088   -1.4922 H   0  0  0  0  0  0  0  0  0  0  0  0
   -4.4860   -0.3837   -3.0934 H   0  0  0  0  0  0  0  0  0  0  0  0
   -2.8683   -1.0365   -2.7992 H   0  0  0  0  0  0  0  0  0  0  0  0
  1  2  1  0  0  0  0
  2  3  1  0  0  0  0
  3  4  2  0  0  0  0
  4  5  2  0  0  0  0
  4  6  2  0  0  0  0
  6  7  1  0  0  0  0
  7  8  1  0  0  0  0
  4  9  1  0  0  0  0
  9 10  1  0  0  0  0
 10 11  1  0  0  0  0
 11 12  1  0  0  0  0
 12 13  2  0  0  0  0
 12 14  2  0  0  0  0
 14 15  1  0  0  0  0
 15 16  1  0  0  0  0
 12 17  2  0  0  0  0
 17 18  1  0  0  0  0
 18 19  1  0  0  0  0
  1 20  1  0  0  0  0
  1 21  1  0  0  0  0
  1 22  1  0  0  0  0
  2 23  1  0  0  0  0
  2 24  1  0  0  0  0
  7 25  1  0  0  0  0
  7 26  1  0  0  0  0
  8 27  1  0  0  0  0
  8 28  1  0  0  0  0
  8 29  1  0  0  0  0
 10 30  1  0  0  0  0
 10 31  1  0  0  0  0
 15 32  1  0  0  0  0
 15 33  1  0  0  0  0
 16 34  1  0  0  0  0
 16 35  1  0  0  0  0
 16 36  1  0  0  0  0
 18 37  1  0  0  0  0
 18 38  1  0  0  0  0
 19 39  1  0  0  0  0
 19 40  1  0  0  0  0
 19 41  1  0  0  0  0
M  END
