 xtb: 6.7.1 (edcfbbe)
          04092505203D

 41 40  0     0  0            999 V2000
    1.4815   -0.5809   -2.8620 C   0  0  0  0  0  0  0  0  0  0  0  0
    2.4975    0.1523   -2.0090 C   0  0  0  0  0  0  0  0  0  0  0  0
    2.8664   -0.6364   -0.8643 O   0  0  0  0  0  0  0  0  0  0  0  0
    2.2971   -0.4119    0.6021 P   0  0  0  0  0  0  0  0  0  0  0  0
    2.3459    1.4354    1.2691 S   0  0  0  0  0  0  0  0  0  0  0  0
    3.1661   -1.4415    1.4327 O   0  0  0  0  0  0  0  0  0  0  0  0
    4.4232   -1.0792    2.0398 C   0  0  0  0  0  0  0  0  0  0  0  0
    5.5001   -0.8308    1.0050 C   0  0  0  0  0  0  0  0  0  0  0  0
    0.4629   -1.4468    0.6634 S   0  0  0  0  0  0  0  0  0  0  0  0
   -0.4392   -0.3574    1.8259 C   0  0  0  0  0  0  0  0  0  0  0  0
   -2.1970   -0.3089    1.4535 S   0  0  0  0  0  0  0  0  0  0  0  0
   -2.0577    0.4936   -0.5235 P   0  0  0  0  0  0  0  0  0  0  0  0
   -0.6277    1.7890   -0.8528 S   0  0  0  0  0  0  0  0  0  0  0  0
   -3.5545    0.9379   -0.8140 O   0  0  0  0  0  0  0  0  0  0  0  0
   -4.3663    1.7523    0.0529 C   0  0  0  0  0  0  0  0  0  0  0  0
   -3.6943    3.0545    0.4340 C   0  0  0  0  0  0  0  0  0  0  0  0
   -1.8839   -0.7298   -1.5009 O   0  0  0  0  0  0  0  0  0  0  0  0
   -2.7890   -1.8612   -1.5395 C   0  0  0  0  0  0  0  0  0  0  0  0
   -3.7468   -1.7310   -2.7060 C   0  0  0  0  0  0  0  0  0  0  0  0
    1.3206   -0.0220   -3.7783 H   0  0  0  0  0  0  0  0  0  0  0  0
    1.8459   -1.5762   -3.1003 H   0  0  0  0  0  0  0  0  0  0  0  0
    0.5321   -0.6667   -2.3369 H   0  0  0  0  0  0  0  0  0  0  0  0
    2.1080    1.1200   -1.6748 H   0  0  0  0  0  0  0  0  0  0  0  0
    3.4309    0.3061   -2.5543 H   0  0  0  0  0  0  0  0  0  0  0  0
    4.2643   -0.1867    2.6535 H   0  0  0  0  0  0  0  0  0  0  0  0
    4.6596   -1.9334    2.6754 H   0  0  0  0  0  0  0  0  0  0  0  0
    6.4495   -0.6666    1.5052 H   0  0  0  0  0  0  0  0  0  0  0  0
    5.5832   -1.6840    0.3370 H   0  0  0  0  0  0  0  0  0  0  0  0
    5.2515    0.0527    0.4182 H   0  0  0  0  0  0  0  0  0  0  0  0
   -0.0148    0.6482    1.7502 H   0  0  0  0  0  0  0  0  0  0  0  0
   -0.3502   -0.7498    2.8359 H   0  0  0  0  0  0  0  0  0  0  0  0
   -5.2706    1.9284   -0.5322 H   0  0  0  0  0  0  0  0  0  0  0  0
   -4.6058    1.1656    0.9439 H   0  0  0  0  0  0  0  0  0  0  0  0
   -4.3804    3.6582    1.0193 H   0  0  0  0  0  0  0  0  0  0  0  0
   -2.8016    2.8586    1.0269 H   0  0  0  0  0  0  0  0  0  0  0  0
   -3.3986    3.6051   -0.4562 H   0  0  0  0  0  0  0  0  0  0  0  0
   -2.1382   -2.7308   -1.6480 H   0  0  0  0  0  0  0  0  0  0  0  0
   -3.3251   -1.9213   -0.5883 H   0  0  0  0  0  0  0  0  0  0  0  0
   -4.3804   -2.6114   -2.7451 H   0  0  0  0  0  0  0  0  0  0  0  0
   -4.3662   -0.8461   -2.5865 H   0  0  0  0  0  0  0  0  0  0  0  0
   -3.1917   -1.6456   -3.6359 H   0  0  0  0  0  0  0  0  0  0  0  0
  1  2  1  0  0  0  0
  2  3  1  0  0  0  0
  3  4  2  0  0  0  0
  4  5  2  0  0  0  0
  4  6  2  0  0  0  0
  6  7  1  0  0  0  0
  7  8  1  0  0  0  0
  4  9  1  0  0  0  0
  9 10  1  0  0  0  0
 10 11  1  0  0  0  0
 11 12  1  0  0  0  0
 12 13  2  0  0  0  0
 12 14  2  0  0  0  0
 14 15  1  0  0  0  0
 15 16  1  0  0  0  0
 12 17  2  0  0  0  0
 17 18  1  0  0  0  0
 18 19  1  0  0  0  0
  1 20  1  0  0  0  0
  1 21  1  0  0  0  0
  1 22  1  0  0  0  0
  2 23  1  0  0  0  0
  2 24  1  0  0  0  0
  7 25  1  0  0  0  0
  7 26  1  0  0  0  0
  8 27  1  0  0  0  0
  8 28  1  0  0  0  0
  8 29  1  0  0  0  0
 10 30  1  0  0  0  0
 10 31  1  0  0  0  0
 15 32  1  0  0  0  0
 15 33  1  0  0  0  0
 16 34  1  0  0  0  0
 16 35  1  0  0  0  0
 16 36  1  0  0  0  0
 18 37  1  0  0  0  0
 18 38  1  0  0  0  0
 19 39  1  0  0  0  0
 19 40  1  0  0  0  0
 19 41  1  0  0  0  0
M  END
