 xtb: 6.7.1 (edcfbbe)
          04092505203D

 41 40  0     0  0            999 V2000
    4.1868    2.3631    0.2054 C   0  0  0  0  0  0  0  0  0  0  0  0
    3.0199    1.7741   -0.5600 C   0  0  0  0  0  0  0  0  0  0  0  0
    2.0959    1.1249    0.3494 O   0  0  0  0  0  0  0  0  0  0  0  0
    2.0380   -0.4328    0.5734 P   0  0  0  0  0  0  0  0  0  0  0  0
    0.6727   -0.8445    1.9150 S   0  0  0  0  0  0  0  0  0  0  0  0
    3.5522   -0.7742    0.9112 O   0  0  0  0  0  0  0  0  0  0  0  0
    4.1503   -2.0815    0.8401 C   0  0  0  0  0  0  0  0  0  0  0  0
    3.3844   -3.1221    1.6296 C   0  0  0  0  0  0  0  0  0  0  0  0
    1.7934   -1.3233   -1.3561 S   0  0  0  0  0  0  0  0  0  0  0  0
   -0.0019   -1.2556   -1.4287 C   0  0  0  0  0  0  0  0  0  0  0  0
   -0.6097    0.4617   -1.3518 S   0  0  0  0  0  0  0  0  0  0  0  0
   -2.4791    0.1022   -0.3867 P   0  0  0  0  0  0  0  0  0  0  0  0
   -2.6946   -1.6311    0.4889 S   0  0  0  0  0  0  0  0  0  0  0  0
   -3.5465    0.2850   -1.5305 O   0  0  0  0  0  0  0  0  0  0  0  0
   -3.6363    1.4580   -2.3779 C   0  0  0  0  0  0  0  0  0  0  0  0
   -4.6476    2.4456   -1.8333 C   0  0  0  0  0  0  0  0  0  0  0  0
   -2.7275    1.3897    0.5122 O   0  0  0  0  0  0  0  0  0  0  0  0
   -2.0998    1.6101    1.7887 C   0  0  0  0  0  0  0  0  0  0  0  0
   -0.9450    2.5839    1.6618 C   0  0  0  0  0  0  0  0  0  0  0  0
    3.8259    3.0602    0.9563 H   0  0  0  0  0  0  0  0  0  0  0  0
    4.7472    1.5751    0.7013 H   0  0  0  0  0  0  0  0  0  0  0  0
    4.8380    2.8865   -0.4875 H   0  0  0  0  0  0  0  0  0  0  0  0
    3.3572    1.0476   -1.3044 H   0  0  0  0  0  0  0  0  0  0  0  0
    2.4264    2.5495   -1.0479 H   0  0  0  0  0  0  0  0  0  0  0  0
    4.2182   -2.3679   -0.2130 H   0  0  0  0  0  0  0  0  0  0  0  0
    5.1504   -1.9296    1.2499 H   0  0  0  0  0  0  0  0  0  0  0  0
    3.9234   -4.0637    1.6060 H   0  0  0  0  0  0  0  0  0  0  0  0
    3.2620   -2.8023    2.6620 H   0  0  0  0  0  0  0  0  0  0  0  0
    2.3948   -3.2704    1.1984 H   0  0  0  0  0  0  0  0  0  0  0  0
   -0.4329   -1.8056   -0.5866 H   0  0  0  0  0  0  0  0  0  0  0  0
   -0.2885   -1.7011   -2.3784 H   0  0  0  0  0  0  0  0  0  0  0  0
   -2.6435    1.9094   -2.4623 H   0  0  0  0  0  0  0  0  0  0  0  0
   -3.9475    1.0649   -3.3474 H   0  0  0  0  0  0  0  0  0  0  0  0
   -4.3275    2.8203   -0.8651 H   0  0  0  0  0  0  0  0  0  0  0  0
   -4.7414    3.2752   -2.5271 H   0  0  0  0  0  0  0  0  0  0  0  0
   -5.6138    1.9620   -1.7184 H   0  0  0  0  0  0  0  0  0  0  0  0
   -2.8919    2.0164    2.4208 H   0  0  0  0  0  0  0  0  0  0  0  0
   -1.7665    0.6521    2.2009 H   0  0  0  0  0  0  0  0  0  0  0  0
   -0.5751    2.8194    2.6546 H   0  0  0  0  0  0  0  0  0  0  0  0
   -0.1333    2.1430    1.0873 H   0  0  0  0  0  0  0  0  0  0  0  0
   -1.2753    3.4951    1.1714 H   0  0  0  0  0  0  0  0  0  0  0  0
  1  2  1  0  0  0  0
  2  3  1  0  0  0  0
  3  4  2  0  0  0  0
  4  5  2  0  0  0  0
  4  6  2  0  0  0  0
  6  7  1  0  0  0  0
  7  8  1  0  0  0  0
  4  9  1  0  0  0  0
  9 10  1  0  0  0  0
 10 11  1  0  0  0  0
 11 12  1  0  0  0  0
 12 13  2  0  0  0  0
 12 14  2  0  0  0  0
 14 15  1  0  0  0  0
 15 16  1  0  0  0  0
 12 17  2  0  0  0  0
 17 18  1  0  0  0  0
 18 19  1  0  0  0  0
  1 20  1  0  0  0  0
  1 21  1  0  0  0  0
  1 22  1  0  0  0  0
  2 23  1  0  0  0  0
  2 24  1  0  0  0  0
  7 25  1  0  0  0  0
  7 26  1  0  0  0  0
  8 27  1  0  0  0  0
  8 28  1  0  0  0  0
  8 29  1  0  0  0  0
 10 30  1  0  0  0  0
 10 31  1  0  0  0  0
 15 32  1  0  0  0  0
 15 33  1  0  0  0  0
 16 34  1  0  0  0  0
 16 35  1  0  0  0  0
 16 36  1  0  0  0  0
 18 37  1  0  0  0  0
 18 38  1  0  0  0  0
 19 39  1  0  0  0  0
 19 40  1  0  0  0  0
 19 41  1  0  0  0  0
M  END
