 xtb: 6.7.1 (edcfbbe)
          04092505203D

 41 40  0     0  0            999 V2000
    4.0084   -1.0542   -2.8349 C   0  0  0  0  0  0  0  0  0  0  0  0
    4.4873   -0.5959   -1.4738 C   0  0  0  0  0  0  0  0  0  0  0  0
    3.6062    0.3683   -0.8654 O   0  0  0  0  0  0  0  0  0  0  0  0
    2.0478    0.1731   -0.6246 P   0  0  0  0  0  0  0  0  0  0  0  0
    0.8509    0.4230   -2.1527 S   0  0  0  0  0  0  0  0  0  0  0  0
    1.7691    1.2762    0.4617 O   0  0  0  0  0  0  0  0  0  0  0  0
    2.4606    1.3601    1.7340 C   0  0  0  0  0  0  0  0  0  0  0  0
    1.5307    0.9511    2.8589 C   0  0  0  0  0  0  0  0  0  0  0  0
    1.9505   -1.7375    0.3020 S   0  0  0  0  0  0  0  0  0  0  0  0
    0.2111   -2.1029   -0.0249 C   0  0  0  0  0  0  0  0  0  0  0  0
   -0.9248   -1.4804    1.2567 S   0  0  0  0  0  0  0  0  0  0  0  0
   -1.9967    0.0921    0.3322 P   0  0  0  0  0  0  0  0  0  0  0  0
   -1.3588    1.9510    0.3933 S   0  0  0  0  0  0  0  0  0  0  0  0
   -3.4303   -0.0743    1.0070 O   0  0  0  0  0  0  0  0  0  0  0  0
   -3.7945    0.6122    2.2130 C   0  0  0  0  0  0  0  0  0  0  0  0
   -3.0790    0.0382    3.4190 C   0  0  0  0  0  0  0  0  0  0  0  0
   -2.2269   -0.5633   -1.0903 O   0  0  0  0  0  0  0  0  0  0  0  0
   -2.6496    0.2080   -2.2313 C   0  0  0  0  0  0  0  0  0  0  0  0
   -4.0557    0.7410   -2.0630 C   0  0  0  0  0  0  0  0  0  0  0  0
    3.0668   -1.5932   -2.7413 H   0  0  0  0  0  0  0  0  0  0  0  0
    3.8496   -0.2002   -3.4892 H   0  0  0  0  0  0  0  0  0  0  0  0
    4.7511   -1.7118   -3.2748 H   0  0  0  0  0  0  0  0  0  0  0  0
    5.4372   -0.0629   -1.5433 H   0  0  0  0  0  0  0  0  0  0  0  0
    4.5847   -1.4449   -0.7918 H   0  0  0  0  0  0  0  0  0  0  0  0
    3.3533    0.7315    1.7000 H   0  0  0  0  0  0  0  0  0  0  0  0
    2.7492    2.4085    1.8212 H   0  0  0  0  0  0  0  0  0  0  0  0
    1.2838   -0.1068    2.7948 H   0  0  0  0  0  0  0  0  0  0  0  0
    2.0150    1.1460    3.8101 H   0  0  0  0  0  0  0  0  0  0  0  0
    0.6117    1.5303    2.7988 H   0  0  0  0  0  0  0  0  0  0  0  0
    0.1191   -3.1855   -0.0194 H   0  0  0  0  0  0  0  0  0  0  0  0
   -0.0667   -1.6802   -0.9920 H   0  0  0  0  0  0  0  0  0  0  0  0
   -3.5570    1.6749    2.0920 H   0  0  0  0  0  0  0  0  0  0  0  0
   -4.8748    0.4772    2.2805 H   0  0  0  0  0  0  0  0  0  0  0  0
   -2.0058    0.2031    3.3227 H   0  0  0  0  0  0  0  0  0  0  0  0
   -3.4333    0.5297    4.3192 H   0  0  0  0  0  0  0  0  0  0  0  0
   -3.2599   -1.0309    3.4923 H   0  0  0  0  0  0  0  0  0  0  0  0
   -1.9338    1.0228   -2.3840 H   0  0  0  0  0  0  0  0  0  0  0  0
   -2.5735   -0.4955   -3.0616 H   0  0  0  0  0  0  0  0  0  0  0  0
   -4.0795    1.4735   -1.2569 H   0  0  0  0  0  0  0  0  0  0  0  0
   -4.3685    1.2207   -2.9850 H   0  0  0  0  0  0  0  0  0  0  0  0
   -4.7376   -0.0706   -1.8233 H   0  0  0  0  0  0  0  0  0  0  0  0
  1  2  1  0  0  0  0
  2  3  1  0  0  0  0
  3  4  2  0  0  0  0
  4  5  2  0  0  0  0
  4  6  2  0  0  0  0
  6  7  1  0  0  0  0
  7  8  1  0  0  0  0
  4  9  1  0  0  0  0
  9 10  1  0  0  0  0
 10 11  1  0  0  0  0
 11 12  1  0  0  0  0
 12 13  2  0  0  0  0
 12 14  2  0  0  0  0
 14 15  1  0  0  0  0
 15 16  1  0  0  0  0
 12 17  2  0  0  0  0
 17 18  1  0  0  0  0
 18 19  1  0  0  0  0
  1 20  1  0  0  0  0
  1 21  1  0  0  0  0
  1 22  1  0  0  0  0
  2 23  1  0  0  0  0
  2 24  1  0  0  0  0
  7 25  1  0  0  0  0
  7 26  1  0  0  0  0
  8 27  1  0  0  0  0
  8 28  1  0  0  0  0
  8 29  1  0  0  0  0
 10 30  1  0  0  0  0
 10 31  1  0  0  0  0
 15 32  1  0  0  0  0
 15 33  1  0  0  0  0
 16 34  1  0  0  0  0
 16 35  1  0  0  0  0
 16 36  1  0  0  0  0
 18 37  1  0  0  0  0
 18 38  1  0  0  0  0
 19 39  1  0  0  0  0
 19 40  1  0  0  0  0
 19 41  1  0  0  0  0
M  END
