 xtb: 6.7.1 (edcfbbe)
          04032520123D

 11 11  0     0  0            999 V2000
    1.6426    1.1965    0.0001 C   0  0  0  0  0  0  0  0  0  0  0  0
    0.2573    1.2315   -0.0001 C   0  0  0  0  0  0  0  0  0  0  0  0
   -0.4207    0.0223   -0.0003 C   0  0  0  0  0  0  0  0  0  0  0  0
    0.2991   -1.1656   -0.0001 C   0  0  0  0  0  0  0  0  0  0  0  0
    1.6191   -1.1889    0.0001 N   0  0  0  0  0  0  0  0  0  0  0  0
    2.2743   -0.0383    0.0000 C   0  0  0  0  0  0  0  0  0  0  0  0
   -2.1571   -0.0103    0.0001 Cl  0  0  0  0  0  0  0  0  0  0  0  0
    2.2151    2.1093    0.0002 H   0  0  0  0  0  0  0  0  0  0  0  0
   -0.2835    2.1644   -0.0001 H   0  0  0  0  0  0  0  0  0  0  0  0
   -0.1994   -2.1241   -0.0002 H   0  0  0  0  0  0  0  0  0  0  0  0
    3.3515   -0.1198    0.0002 H   0  0  0  0  0  0  0  0  0  0  0  0
  1  2  4  0  0  0  0
  2  3  4  0  0  0  0
  3  4  4  0  0  0  0
  4  5  4  0  0  0  0
  1  6  4  0  0  0  0
  5  6  4  0  0  0  0
  3  7  1  0  0  0  0
  1  8  1  0  0  0  0
  2  9  1  0  0  0  0
  4 10  1  0  0  0  0
  6 11  1  0  0  0  0
M  END
