 xtb: 6.7.1 (edcfbbe)
          04092507313D

 38 37  0     0  0            999 V2000
    4.4764   -3.2030   -1.8123 C   0  0  0  0  0  0  0  0  0  0  0  0
    2.9809   -2.9962   -1.9942 C   0  0  0  0  0  0  0  0  0  0  0  0
    2.5686   -1.7248   -1.4590 O   0  0  0  0  0  0  0  0  0  0  0  0
    2.2577   -1.6532   -0.1807 C   0  0  0  0  0  0  0  0  0  0  0  0
    2.2918   -2.5845    0.5915 O   0  0  0  0  0  0  0  0  0  0  0  0
    1.8503   -0.2474    0.2246 C   0  0  0  0  0  0  0  0  0  0  0  0
    0.9854    0.4201   -0.8442 C   0  0  0  0  0  0  0  0  0  0  0  0
    1.5545    0.5374   -1.7689 H   0  0  0  0  0  0  0  0  0  0  0  0
    0.4839    1.7655   -0.3634 C   0  0  0  0  0  0  0  0  0  0  0  0
   -0.7037    1.9936   -0.2156 O   0  0  0  0  0  0  0  0  0  0  0  0
    1.4456    2.6056   -0.1299 O   0  0  0  0  0  0  0  0  0  0  0  0
    1.1137    3.8933    0.4414 C   0  0  0  0  0  0  0  0  0  0  0  0
    1.0159    3.7917    1.9544 C   0  0  0  0  0  0  0  0  0  0  0  0
   -0.4702   -0.5899   -1.2933 S   0  0  0  0  0  0  0  0  0  0  0  0
   -1.7929   -0.1401    0.2927 P   0  0  0  0  0  0  0  0  0  0  0  0
   -1.2539    0.3238    2.1324 S   0  0  0  0  0  0  0  0  0  0  0  0
   -3.0913    0.6207   -0.2456 O   0  0  0  0  0  0  0  0  0  0  0  0
   -3.4463    1.9783    0.0164 C   0  0  0  0  0  0  0  0  0  0  0  0
   -2.3695   -1.6414    0.2272 O   0  0  0  0  0  0  0  0  0  0  0  0
   -3.4126   -2.0785    1.1006 C   0  0  0  0  0  0  0  0  0  0  0  0
    4.7691   -4.1352   -2.2838 H   0  0  0  0  0  0  0  0  0  0  0  0
    5.0258   -2.3832   -2.2664 H   0  0  0  0  0  0  0  0  0  0  0  0
    4.7202   -3.2521   -0.7534 H   0  0  0  0  0  0  0  0  0  0  0  0
    2.4154   -3.7859   -1.4919 H   0  0  0  0  0  0  0  0  0  0  0  0
    2.7088   -2.9473   -3.0485 H   0  0  0  0  0  0  0  0  0  0  0  0
    2.7553    0.3465    0.3710 H   0  0  0  0  0  0  0  0  0  0  0  0
    1.3198   -0.3156    1.1775 H   0  0  0  0  0  0  0  0  0  0  0  0
    1.9339    4.5415    0.1348 H   0  0  0  0  0  0  0  0  0  0  0  0
    0.1694    4.2348    0.0110 H   0  0  0  0  0  0  0  0  0  0  0  0
    1.9608    3.4582    2.3735 H   0  0  0  0  0  0  0  0  0  0  0  0
    0.7668    4.7646    2.3643 H   0  0  0  0  0  0  0  0  0  0  0  0
    0.2408    3.0816    2.2385 H   0  0  0  0  0  0  0  0  0  0  0  0
   -3.0566    2.6149   -0.7748 H   0  0  0  0  0  0  0  0  0  0  0  0
   -3.0400    2.2937    0.9783 H   0  0  0  0  0  0  0  0  0  0  0  0
   -4.5337    2.0021    0.0339 H   0  0  0  0  0  0  0  0  0  0  0  0
   -3.4333   -3.1621    1.0160 H   0  0  0  0  0  0  0  0  0  0  0  0
   -4.3651   -1.6501    0.7899 H   0  0  0  0  0  0  0  0  0  0  0  0
   -3.1904   -1.7828    2.1284 H   0  0  0  0  0  0  0  0  0  0  0  0
  1  2  1  0  0  0  0
  2  3  1  0  0  0  0
  3  4  1  0  0  0  0
  4  5  2  0  0  0  0
  4  6  1  0  0  0  0
  6  7  1  0  0  0  0
  7  8  1  0  0  0  0
  7  9  1  0  0  0  0
  9 10  2  0  0  0  0
  9 11  4  0  0  0  0
 11 12  1  0  0  0  0
 12 13  1  0  0  0  0
  7 14  1  0  0  0  0
 14 15  1  0  0  0  0
 15 16  2  0  0  0  0
 15 17  2  0  0  0  0
 17 18  1  0  0  0  0
 15 19  1  0  0  0  0
 19 20  1  0  0  0  0
  1 21  1  0  0  0  0
  1 22  1  0  0  0  0
  1 23  1  0  0  0  0
  2 24  1  0  0  0  0
  2 25  1  0  0  0  0
  6 26  1  0  0  0  0
  6 27  1  0  0  0  0
 12 28  1  0  0  0  0
 12 29  1  0  0  0  0
 13 30  1  0  0  0  0
 13 31  1  0  0  0  0
 13 32  1  0  0  0  0
 18 33  1  0  0  0  0
 18 34  1  0  0  0  0
 18 35  1  0  0  0  0
 20 36  1  0  0  0  0
 20 37  1  0  0  0  0
 20 38  1  0  0  0  0
M  END
