 xtb: 6.7.1 (edcfbbe)
          04092505203D

 41 40  0     0  0            999 V2000
    5.6418   -1.3960   -1.1302 C   0  0  0  0  0  0  0  0  0  0  0  0
    4.8055   -0.1469   -0.9430 C   0  0  0  0  0  0  0  0  0  0  0  0
    3.5914   -0.5225   -0.2546 O   0  0  0  0  0  0  0  0  0  0  0  0
    2.2524    0.3061   -0.4090 P   0  0  0  0  0  0  0  0  0  0  0  0
    1.7812    0.7643   -2.2624 S   0  0  0  0  0  0  0  0  0  0  0  0
    2.5697    1.5528    0.5295 O   0  0  0  0  0  0  0  0  0  0  0  0
    1.7254    2.7091    0.6599 C   0  0  0  0  0  0  0  0  0  0  0  0
    0.8805    2.6167    1.9152 C   0  0  0  0  0  0  0  0  0  0  0  0
    0.9869   -0.9649    0.6771 S   0  0  0  0  0  0  0  0  0  0  0  0
    0.0022   -1.6486   -0.7080 C   0  0  0  0  0  0  0  0  0  0  0  0
   -1.7071   -1.9516   -0.2289 S   0  0  0  0  0  0  0  0  0  0  0  0
   -2.2359    0.0474    0.2980 P   0  0  0  0  0  0  0  0  0  0  0  0
   -1.4453    1.4925   -0.7575 S   0  0  0  0  0  0  0  0  0  0  0  0
   -1.9046    0.1934    1.8318 O   0  0  0  0  0  0  0  0  0  0  0  0
   -2.4068   -0.7262    2.8394 C   0  0  0  0  0  0  0  0  0  0  0  0
   -1.2602   -1.5134    3.4401 C   0  0  0  0  0  0  0  0  0  0  0  0
   -3.8266    0.0010    0.3195 O   0  0  0  0  0  0  0  0  0  0  0  0
   -4.6382    0.2545   -0.8408 C   0  0  0  0  0  0  0  0  0  0  0  0
   -4.4379   -0.7820   -1.9274 C   0  0  0  0  0  0  0  0  0  0  0  0
    5.8479   -1.8501   -0.1654 H   0  0  0  0  0  0  0  0  0  0  0  0
    5.1098   -2.1120   -1.7503 H   0  0  0  0  0  0  0  0  0  0  0  0
    6.5769   -1.1295   -1.6120 H   0  0  0  0  0  0  0  0  0  0  0  0
    4.5360    0.3051   -1.9039 H   0  0  0  0  0  0  0  0  0  0  0  0
    5.3208    0.5953   -0.3292 H   0  0  0  0  0  0  0  0  0  0  0  0
    2.4154    3.5537    0.7095 H   0  0  0  0  0  0  0  0  0  0  0  0
    1.0992    2.8040   -0.2336 H   0  0  0  0  0  0  0  0  0  0  0  0
    1.5156    2.4329    2.7772 H   0  0  0  0  0  0  0  0  0  0  0  0
    0.3442    3.5506    2.0498 H   0  0  0  0  0  0  0  0  0  0  0  0
    0.1553    1.8092    1.8304 H   0  0  0  0  0  0  0  0  0  0  0  0
    0.4123   -2.6116   -1.0015 H   0  0  0  0  0  0  0  0  0  0  0  0
    0.0379   -0.9331   -1.5346 H   0  0  0  0  0  0  0  0  0  0  0  0
   -2.8891   -0.0915    3.5840 H   0  0  0  0  0  0  0  0  0  0  0  0
   -3.1476   -1.3858    2.3828 H   0  0  0  0  0  0  0  0  0  0  0  0
   -0.5084   -0.8371    3.8365 H   0  0  0  0  0  0  0  0  0  0  0  0
   -1.6422   -2.1372    4.2416 H   0  0  0  0  0  0  0  0  0  0  0  0
   -0.7916   -2.1432    2.6875 H   0  0  0  0  0  0  0  0  0  0  0  0
   -5.6568    0.2374   -0.4504 H   0  0  0  0  0  0  0  0  0  0  0  0
   -4.4002    1.2549   -1.2152 H   0  0  0  0  0  0  0  0  0  0  0  0
   -4.5583   -1.7841   -1.5237 H   0  0  0  0  0  0  0  0  0  0  0  0
   -5.1667   -0.6190   -2.7149 H   0  0  0  0  0  0  0  0  0  0  0  0
   -3.4387   -0.6905   -2.3510 H   0  0  0  0  0  0  0  0  0  0  0  0
  1  2  1  0  0  0  0
  2  3  1  0  0  0  0
  3  4  2  0  0  0  0
  4  5  2  0  0  0  0
  4  6  2  0  0  0  0
  6  7  1  0  0  0  0
  7  8  1  0  0  0  0
  4  9  1  0  0  0  0
  9 10  1  0  0  0  0
 10 11  1  0  0  0  0
 11 12  1  0  0  0  0
 12 13  2  0  0  0  0
 12 14  2  0  0  0  0
 14 15  1  0  0  0  0
 15 16  1  0  0  0  0
 12 17  2  0  0  0  0
 17 18  1  0  0  0  0
 18 19  1  0  0  0  0
  1 20  1  0  0  0  0
  1 21  1  0  0  0  0
  1 22  1  0  0  0  0
  2 23  1  0  0  0  0
  2 24  1  0  0  0  0
  7 25  1  0  0  0  0
  7 26  1  0  0  0  0
  8 27  1  0  0  0  0
  8 28  1  0  0  0  0
  8 29  1  0  0  0  0
 10 30  1  0  0  0  0
 10 31  1  0  0  0  0
 15 32  1  0  0  0  0
 15 33  1  0  0  0  0
 16 34  1  0  0  0  0
 16 35  1  0  0  0  0
 16 36  1  0  0  0  0
 18 37  1  0  0  0  0
 18 38  1  0  0  0  0
 19 39  1  0  0  0  0
 19 40  1  0  0  0  0
 19 41  1  0  0  0  0
M  END
