 xtb: 6.7.1 (edcfbbe)
          04092505203D

 41 40  0     0  0            999 V2000
    5.2877   -0.5712   -2.4057 C   0  0  0  0  0  0  0  0  0  0  0  0
    3.8770   -0.9557   -2.0089 C   0  0  0  0  0  0  0  0  0  0  0  0
    3.5263   -0.2012   -0.8300 O   0  0  0  0  0  0  0  0  0  0  0  0
    2.0133   -0.0304   -0.3803 P   0  0  0  0  0  0  0  0  0  0  0  0
    0.8341    0.6638   -1.7783 S   0  0  0  0  0  0  0  0  0  0  0  0
    2.1007    0.9325    0.8563 O   0  0  0  0  0  0  0  0  0  0  0  0
    2.9363    0.7035    2.0195 C   0  0  0  0  0  0  0  0  0  0  0  0
    4.2618    1.4212    1.8762 C   0  0  0  0  0  0  0  0  0  0  0  0
    1.5994   -1.9759    0.3796 S   0  0  0  0  0  0  0  0  0  0  0  0
   -0.0337   -1.7112    1.1186 C   0  0  0  0  0  0  0  0  0  0  0  0
   -1.3888   -1.5617   -0.0843 S   0  0  0  0  0  0  0  0  0  0  0  0
   -2.0312    0.4358    0.3130 P   0  0  0  0  0  0  0  0  0  0  0  0
   -1.0060    1.4088    1.6635 S   0  0  0  0  0  0  0  0  0  0  0  0
   -3.5640    0.2261    0.7014 O   0  0  0  0  0  0  0  0  0  0  0  0
   -3.9416   -0.3923    1.9468 C   0  0  0  0  0  0  0  0  0  0  0  0
   -5.4201   -0.1402    2.1634 C   0  0  0  0  0  0  0  0  0  0  0  0
   -2.1544    1.1999   -1.0487 O   0  0  0  0  0  0  0  0  0  0  0  0
   -2.7204    0.6384   -2.2593 C   0  0  0  0  0  0  0  0  0  0  0  0
   -4.1881    0.9876   -2.3830 C   0  0  0  0  0  0  0  0  0  0  0  0
    5.3371    0.4919   -2.6249 H   0  0  0  0  0  0  0  0  0  0  0  0
    5.9769   -0.7982   -1.5976 H   0  0  0  0  0  0  0  0  0  0  0  0
    5.5730   -1.1323   -3.2893 H   0  0  0  0  0  0  0  0  0  0  0  0
    3.8046   -2.0186   -1.7642 H   0  0  0  0  0  0  0  0  0  0  0  0
    3.1573   -0.7187   -2.7994 H   0  0  0  0  0  0  0  0  0  0  0  0
    2.3488    1.1028    2.8491 H   0  0  0  0  0  0  0  0  0  0  0  0
    3.0813   -0.3730    2.1460 H   0  0  0  0  0  0  0  0  0  0  0  0
    4.0941    2.4813    1.7065 H   0  0  0  0  0  0  0  0  0  0  0  0
    4.8347    1.2900    2.7888 H   0  0  0  0  0  0  0  0  0  0  0  0
    4.8206    1.0153    1.0372 H   0  0  0  0  0  0  0  0  0  0  0  0
   -0.0190   -0.8055    1.7328 H   0  0  0  0  0  0  0  0  0  0  0  0
   -0.2232   -2.5982    1.7174 H   0  0  0  0  0  0  0  0  0  0  0  0
   -3.7247   -1.4621    1.8757 H   0  0  0  0  0  0  0  0  0  0  0  0
   -3.3382    0.0462    2.7487 H   0  0  0  0  0  0  0  0  0  0  0  0
   -5.7244   -0.5946    3.1004 H   0  0  0  0  0  0  0  0  0  0  0  0
   -5.6134    0.9281    2.2028 H   0  0  0  0  0  0  0  0  0  0  0  0
   -5.9957   -0.5728    1.3502 H   0  0  0  0  0  0  0  0  0  0  0  0
   -2.1237    1.0817   -3.0591 H   0  0  0  0  0  0  0  0  0  0  0  0
   -2.5650   -0.4442   -2.2532 H   0  0  0  0  0  0  0  0  0  0  0  0
   -4.3173    2.0659   -2.3495 H   0  0  0  0  0  0  0  0  0  0  0  0
   -4.5606    0.6097   -3.3299 H   0  0  0  0  0  0  0  0  0  0  0  0
   -4.7517    0.5406   -1.5685 H   0  0  0  0  0  0  0  0  0  0  0  0
  1  2  1  0  0  0  0
  2  3  1  0  0  0  0
  3  4  2  0  0  0  0
  4  5  2  0  0  0  0
  4  6  2  0  0  0  0
  6  7  1  0  0  0  0
  7  8  1  0  0  0  0
  4  9  1  0  0  0  0
  9 10  1  0  0  0  0
 10 11  1  0  0  0  0
 11 12  1  0  0  0  0
 12 13  2  0  0  0  0
 12 14  2  0  0  0  0
 14 15  1  0  0  0  0
 15 16  1  0  0  0  0
 12 17  2  0  0  0  0
 17 18  1  0  0  0  0
 18 19  1  0  0  0  0
  1 20  1  0  0  0  0
  1 21  1  0  0  0  0
  1 22  1  0  0  0  0
  2 23  1  0  0  0  0
  2 24  1  0  0  0  0
  7 25  1  0  0  0  0
  7 26  1  0  0  0  0
  8 27  1  0  0  0  0
  8 28  1  0  0  0  0
  8 29  1  0  0  0  0
 10 30  1  0  0  0  0
 10 31  1  0  0  0  0
 15 32  1  0  0  0  0
 15 33  1  0  0  0  0
 16 34  1  0  0  0  0
 16 35  1  0  0  0  0
 16 36  1  0  0  0  0
 18 37  1  0  0  0  0
 18 38  1  0  0  0  0
 19 39  1  0  0  0  0
 19 40  1  0  0  0  0
 19 41  1  0  0  0  0
M  END
