 xtb: 6.7.1 (edcfbbe)
          04092505213D

 41 40  0     0  0            999 V2000
    3.2423   -2.3829   -1.7041 C   0  0  0  0  0  0  0  0  0  0  0  0
    3.6870   -0.9373   -1.6038 C   0  0  0  0  0  0  0  0  0  0  0  0
    2.5841   -0.0524   -1.2812 O   0  0  0  0  0  0  0  0  0  0  0  0
    2.0482    0.3035    0.1560 P   0  0  0  0  0  0  0  0  0  0  0  0
    0.9802    1.9512    0.0407 S   0  0  0  0  0  0  0  0  0  0  0  0
    3.4011    0.4452    0.9790 O   0  0  0  0  0  0  0  0  0  0  0  0
    3.5300    0.3830    2.4118 C   0  0  0  0  0  0  0  0  0  0  0  0
    2.5774    1.3149    3.1302 C   0  0  0  0  0  0  0  0  0  0  0  0
    1.2221   -1.4363    1.0770 S   0  0  0  0  0  0  0  0  0  0  0  0
   -0.0052   -2.0358   -0.1406 C   0  0  0  0  0  0  0  0  0  0  0  0
   -0.4512   -0.8408   -1.4257 S   0  0  0  0  0  0  0  0  0  0  0  0
   -1.9675    0.2003   -0.3811 P   0  0  0  0  0  0  0  0  0  0  0  0
   -2.5719    1.9033   -1.1326 S   0  0  0  0  0  0  0  0  0  0  0  0
   -1.3784    0.1676    1.0903 O   0  0  0  0  0  0  0  0  0  0  0  0
   -1.7654    1.1310    2.0892 C   0  0  0  0  0  0  0  0  0  0  0  0
   -3.2283    1.0078    2.4557 C   0  0  0  0  0  0  0  0  0  0  0  0
   -3.1299   -0.8859   -0.2201 O   0  0  0  0  0  0  0  0  0  0  0  0
   -4.1950   -1.0195   -1.1720 C   0  0  0  0  0  0  0  0  0  0  0  0
   -3.7152   -1.6059   -2.4848 C   0  0  0  0  0  0  0  0  0  0  0  0
    2.3764   -2.4566   -2.3579 H   0  0  0  0  0  0  0  0  0  0  0  0
    4.0544   -2.9692   -2.1228 H   0  0  0  0  0  0  0  0  0  0  0  0
    2.9937   -2.7794   -0.7228 H   0  0  0  0  0  0  0  0  0  0  0  0
    4.0309   -0.5618   -2.5690 H   0  0  0  0  0  0  0  0  0  0  0  0
    4.4710   -0.8077   -0.8561 H   0  0  0  0  0  0  0  0  0  0  0  0
    3.3646   -0.6525    2.7221 H   0  0  0  0  0  0  0  0  0  0  0  0
    4.5701    0.6636    2.5876 H   0  0  0  0  0  0  0  0  0  0  0  0
    2.7587    1.2650    4.1989 H   0  0  0  0  0  0  0  0  0  0  0  0
    2.7126    2.3375    2.7857 H   0  0  0  0  0  0  0  0  0  0  0  0
    1.5481    1.0213    2.9273 H   0  0  0  0  0  0  0  0  0  0  0  0
   -0.8945   -2.3178    0.4196 H   0  0  0  0  0  0  0  0  0  0  0  0
    0.4244   -2.8907   -0.6574 H   0  0  0  0  0  0  0  0  0  0  0  0
   -1.1149    0.9003    2.9348 H   0  0  0  0  0  0  0  0  0  0  0  0
   -1.5317    2.1314    1.7104 H   0  0  0  0  0  0  0  0  0  0  0  0
   -3.8459    1.2667    1.5964 H   0  0  0  0  0  0  0  0  0  0  0  0
   -3.4544   -0.0102    2.7619 H   0  0  0  0  0  0  0  0  0  0  0  0
   -3.4512    1.6913    3.2688 H   0  0  0  0  0  0  0  0  0  0  0  0
   -4.9132   -1.6734   -0.6755 H   0  0  0  0  0  0  0  0  0  0  0  0
   -4.6375   -0.0313   -1.3346 H   0  0  0  0  0  0  0  0  0  0  0  0
   -3.2113   -2.5542   -2.3182 H   0  0  0  0  0  0  0  0  0  0  0  0
   -4.5658   -1.7592   -3.1411 H   0  0  0  0  0  0  0  0  0  0  0  0
   -3.0197   -0.9172   -2.9647 H   0  0  0  0  0  0  0  0  0  0  0  0
  1  2  1  0  0  0  0
  2  3  1  0  0  0  0
  3  4  2  0  0  0  0
  4  5  2  0  0  0  0
  4  6  2  0  0  0  0
  6  7  1  0  0  0  0
  7  8  1  0  0  0  0
  4  9  1  0  0  0  0
  9 10  1  0  0  0  0
 10 11  1  0  0  0  0
 11 12  1  0  0  0  0
 12 13  2  0  0  0  0
 12 14  2  0  0  0  0
 14 15  1  0  0  0  0
 15 16  1  0  0  0  0
 12 17  2  0  0  0  0
 17 18  1  0  0  0  0
 18 19  1  0  0  0  0
  1 20  1  0  0  0  0
  1 21  1  0  0  0  0
  1 22  1  0  0  0  0
  2 23  1  0  0  0  0
  2 24  1  0  0  0  0
  7 25  1  0  0  0  0
  7 26  1  0  0  0  0
  8 27  1  0  0  0  0
  8 28  1  0  0  0  0
  8 29  1  0  0  0  0
 10 30  1  0  0  0  0
 10 31  1  0  0  0  0
 15 32  1  0  0  0  0
 15 33  1  0  0  0  0
 16 34  1  0  0  0  0
 16 35  1  0  0  0  0
 16 36  1  0  0  0  0
 18 37  1  0  0  0  0
 18 38  1  0  0  0  0
 19 39  1  0  0  0  0
 19 40  1  0  0  0  0
 19 41  1  0  0  0  0
M  END
