 xtb: 6.7.1 (edcfbbe)
          04092507313D

 38 37  0     0  0            999 V2000
    3.4452   -1.4839    1.8381 C   0  0  0  0  0  0  0  0  0  0  0  0
    2.7764   -2.2703    0.7227 C   0  0  0  0  0  0  0  0  0  0  0  0
    2.6285   -1.4592   -0.4626 O   0  0  0  0  0  0  0  0  0  0  0  0
    1.6241   -0.6345   -0.5468 C   0  0  0  0  0  0  0  0  0  0  0  0
    0.7812   -0.4741    0.3303 O   0  0  0  0  0  0  0  0  0  0  0  0
    1.5705    0.1416   -1.8349 C   0  0  0  0  0  0  0  0  0  0  0  0
    0.4162    1.1272   -1.7343 C   0  0  0  0  0  0  0  0  0  0  0  0
    0.3877    1.7911   -2.6019 H   0  0  0  0  0  0  0  0  0  0  0  0
    0.4922    1.9745   -0.4718 C   0  0  0  0  0  0  0  0  0  0  0  0
   -0.4722    2.3560    0.1477 O   0  0  0  0  0  0  0  0  0  0  0  0
    1.7444    2.2578   -0.1675 O   0  0  0  0  0  0  0  0  0  0  0  0
    1.9943    3.1183    0.9627 C   0  0  0  0  0  0  0  0  0  0  0  0
    1.9383    4.5807    0.5529 C   0  0  0  0  0  0  0  0  0  0  0  0
   -1.2222    0.3078   -1.8042 S   0  0  0  0  0  0  0  0  0  0  0  0
   -1.6025   -0.7870   -0.0362 P   0  0  0  0  0  0  0  0  0  0  0  0
   -1.0531   -2.6599    0.2591 S   0  0  0  0  0  0  0  0  0  0  0  0
   -1.7172    0.0858    1.2972 O   0  0  0  0  0  0  0  0  0  0  0  0
   -0.9064   -0.0398    2.4585 C   0  0  0  0  0  0  0  0  0  0  0  0
   -3.1521   -0.7540   -0.4807 O   0  0  0  0  0  0  0  0  0  0  0  0
   -4.1518   -1.5179    0.1935 C   0  0  0  0  0  0  0  0  0  0  0  0
    4.4039   -1.0993    1.5018 H   0  0  0  0  0  0  0  0  0  0  0  0
    2.8129   -0.6527    2.1430 H   0  0  0  0  0  0  0  0  0  0  0  0
    3.5990   -2.1368    2.6906 H   0  0  0  0  0  0  0  0  0  0  0  0
    1.7894   -2.6307    1.0264 H   0  0  0  0  0  0  0  0  0  0  0  0
    3.3944   -3.1059    0.3958 H   0  0  0  0  0  0  0  0  0  0  0  0
    1.4181   -0.5458   -2.6683 H   0  0  0  0  0  0  0  0  0  0  0  0
    2.5191    0.6605   -1.9798 H   0  0  0  0  0  0  0  0  0  0  0  0
    1.2531    2.9040    1.7382 H   0  0  0  0  0  0  0  0  0  0  0  0
    2.9917    2.8370    1.3014 H   0  0  0  0  0  0  0  0  0  0  0  0
    0.9346    4.8382    0.2221 H   0  0  0  0  0  0  0  0  0  0  0  0
    2.1976    5.2003    1.4049 H   0  0  0  0  0  0  0  0  0  0  0  0
    2.6388    4.7696   -0.2555 H   0  0  0  0  0  0  0  0  0  0  0  0
   -1.5510    0.2075    3.2993 H   0  0  0  0  0  0  0  0  0  0  0  0
   -0.0731    0.6581    2.3969 H   0  0  0  0  0  0  0  0  0  0  0  0
   -0.5297   -1.0606    2.5465 H   0  0  0  0  0  0  0  0  0  0  0  0
   -3.7805   -2.5246    0.4015 H   0  0  0  0  0  0  0  0  0  0  0  0
   -4.9999   -1.5606   -0.4854 H   0  0  0  0  0  0  0  0  0  0  0  0
   -4.4304   -1.0264    1.1255 H   0  0  0  0  0  0  0  0  0  0  0  0
  1  2  1  0  0  0  0
  2  3  1  0  0  0  0
  3  4  4  0  0  0  0
  4  5  2  0  0  0  0
  4  6  1  0  0  0  0
  6  7  1  0  0  0  0
  7  8  1  0  0  0  0
  7  9  1  0  0  0  0
  9 10  2  0  0  0  0
  9 11  1  0  0  0  0
 11 12  1  0  0  0  0
 12 13  1  0  0  0  0
  7 14  1  0  0  0  0
 14 15  1  0  0  0  0
 15 16  2  0  0  0  0
 15 17  1  0  0  0  0
 17 18  1  0  0  0  0
 15 19  1  0  0  0  0
 19 20  1  0  0  0  0
  1 21  1  0  0  0  0
  1 22  1  0  0  0  0
  1 23  1  0  0  0  0
  2 24  1  0  0  0  0
  2 25  1  0  0  0  0
  6 26  1  0  0  0  0
  6 27  1  0  0  0  0
 12 28  1  0  0  0  0
 12 29  1  0  0  0  0
 13 30  1  0  0  0  0
 13 31  1  0  0  0  0
 13 32  1  0  0  0  0
 18 33  1  0  0  0  0
 18 34  1  0  0  0  0
 18 35  1  0  0  0  0
 20 36  1  0  0  0  0
 20 37  1  0  0  0  0
 20 38  1  0  0  0  0
M  END
