 xtb: 6.7.1 (edcfbbe)
          04092507313D

 38 37  0     0  0            999 V2000
    5.1338   -3.1845   -0.1880 C   0  0  0  0  0  0  0  0  0  0  0  0
    4.3071   -2.0291    0.3404 C   0  0  0  0  0  0  0  0  0  0  0  0
    3.0912   -1.9621   -0.4335 O   0  0  0  0  0  0  0  0  0  0  0  0
    2.3358   -0.8975   -0.3131 C   0  0  0  0  0  0  0  0  0  0  0  0
    2.6033    0.0566    0.3931 O   0  0  0  0  0  0  0  0  0  0  0  0
    1.0732   -1.0037   -1.1329 C   0  0  0  0  0  0  0  0  0  0  0  0
    0.4265    0.3658   -1.3237 C   0  0  0  0  0  0  0  0  0  0  0  0
    0.8206    0.8818   -2.2004 H   0  0  0  0  0  0  0  0  0  0  0  0
    0.5850    1.2655   -0.1105 C   0  0  0  0  0  0  0  0  0  0  0  0
   -0.0300    1.0679    0.9231 O   0  0  0  0  0  0  0  0  0  0  0  0
    1.2987    2.3257   -0.3697 O   0  0  0  0  0  0  0  0  0  0  0  0
    1.5350    3.2679    0.6970 C   0  0  0  0  0  0  0  0  0  0  0  0
    1.9487    4.5879    0.0770 C   0  0  0  0  0  0  0  0  0  0  0  0
   -1.3694    0.2280   -1.5825 S   0  0  0  0  0  0  0  0  0  0  0  0
   -2.1054   -0.3120    0.3530 P   0  0  0  0  0  0  0  0  0  0  0  0
   -1.2194   -1.6896    1.4345 S   0  0  0  0  0  0  0  0  0  0  0  0
   -2.5955    0.9850    1.1200 O   0  0  0  0  0  0  0  0  0  0  0  0
   -3.5586    1.8917    0.5489 C   0  0  0  0  0  0  0  0  0  0  0  0
   -3.5458   -0.8363   -0.1433 O   0  0  0  0  0  0  0  0  0  0  0  0
   -3.7035   -2.0901   -0.8114 C   0  0  0  0  0  0  0  0  0  0  0  0
    4.5719   -4.1095   -0.1037 H   0  0  0  0  0  0  0  0  0  0  0  0
    5.3843   -3.0190   -1.2314 H   0  0  0  0  0  0  0  0  0  0  0  0
    6.0470   -3.2652    0.3920 H   0  0  0  0  0  0  0  0  0  0  0  0
    4.8289   -1.0717    0.2466 H   0  0  0  0  0  0  0  0  0  0  0  0
    4.0327   -2.1723    1.3899 H   0  0  0  0  0  0  0  0  0  0  0  0
    0.4100   -1.6610   -0.5561 H   0  0  0  0  0  0  0  0  0  0  0  0
    1.2759   -1.4855   -2.0879 H   0  0  0  0  0  0  0  0  0  0  0  0
    0.6196    3.3544    1.2910 H   0  0  0  0  0  0  0  0  0  0  0  0
    2.3224    2.8461    1.3289 H   0  0  0  0  0  0  0  0  0  0  0  0
    2.8417    4.4489   -0.5244 H   0  0  0  0  0  0  0  0  0  0  0  0
    1.1537    4.9719   -0.5553 H   0  0  0  0  0  0  0  0  0  0  0  0
    2.1552    5.3023    0.8669 H   0  0  0  0  0  0  0  0  0  0  0  0
   -4.5448    1.4311    0.5562 H   0  0  0  0  0  0  0  0  0  0  0  0
   -3.2770    2.1493   -0.4727 H   0  0  0  0  0  0  0  0  0  0  0  0
   -3.5347    2.7696    1.1897 H   0  0  0  0  0  0  0  0  0  0  0  0
   -3.3590   -2.0061   -1.8416 H   0  0  0  0  0  0  0  0  0  0  0  0
   -4.7679   -2.3081   -0.7789 H   0  0  0  0  0  0  0  0  0  0  0  0
   -3.1398   -2.8649   -0.2886 H   0  0  0  0  0  0  0  0  0  0  0  0
  1  2  1  0  0  0  0
  2  3  1  0  0  0  0
  3  4  4  0  0  0  0
  4  5  2  0  0  0  0
  4  6  1  0  0  0  0
  6  7  1  0  0  0  0
  7  8  1  0  0  0  0
  7  9  1  0  0  0  0
  9 10  2  0  0  0  0
  9 11  4  0  0  0  0
 11 12  1  0  0  0  0
 12 13  1  0  0  0  0
  7 14  1  0  0  0  0
 14 15  1  0  0  0  0
 15 16  2  0  0  0  0
 15 17  2  0  0  0  0
 17 18  1  0  0  0  0
 15 19  1  0  0  0  0
 19 20  1  0  0  0  0
  1 21  1  0  0  0  0
  1 22  1  0  0  0  0
  1 23  1  0  0  0  0
  2 24  1  0  0  0  0
  2 25  1  0  0  0  0
  6 26  1  0  0  0  0
  6 27  1  0  0  0  0
 12 28  1  0  0  0  0
 12 29  1  0  0  0  0
 13 30  1  0  0  0  0
 13 31  1  0  0  0  0
 13 32  1  0  0  0  0
 18 33  1  0  0  0  0
 18 34  1  0  0  0  0
 18 35  1  0  0  0  0
 20 36  1  0  0  0  0
 20 37  1  0  0  0  0
 20 38  1  0  0  0  0
M  END
