 xtb: 6.7.1 (edcfbbe)
          04032519423D

 20 20  0     0  0            999 V2000
    0.5876    1.7078   -0.0165 C   0  0  0  0  0  0  0  0  0  0  0  0
    1.3988    0.4283   -0.2636 C   0  0  0  0  0  0  0  0  0  0  0  0
    1.5964    0.3221   -1.3413 H   0  0  0  0  0  0  0  0  0  0  0  0
    0.5655   -0.7759    0.1937 C   0  0  0  0  0  0  0  0  0  0  0  0
    0.4037   -0.6905    1.2792 H   0  0  0  0  0  0  0  0  0  0  0  0
   -0.7903   -0.7586   -0.5195 C   0  0  0  0  0  0  0  0  0  0  0  0
   -0.6196   -0.8942   -1.5977 H   0  0  0  0  0  0  0  0  0  0  0  0
   -1.4766    0.6037   -0.2944 C   0  0  0  0  0  0  0  0  0  0  0  0
   -2.3665    0.6747   -0.9389 H   0  0  0  0  0  0  0  0  0  0  0  0
   -0.6600    1.6582   -0.6971 O   0  0  0  0  0  0  0  0  0  0  0  0
   -1.8349    0.7592    1.0493 O   0  0  0  0  0  0  0  0  0  0  0  0
   -1.6562   -1.7455   -0.0230 O   0  0  0  0  0  0  0  0  0  0  0  0
    1.1921   -1.9998   -0.1086 O   0  0  0  0  0  0  0  0  0  0  0  0
    2.5995    0.4022    0.4704 O   0  0  0  0  0  0  0  0  0  0  0  0
    1.0906    2.5858   -0.4222 H   0  0  0  0  0  0  0  0  0  0  0  0
    0.4244    1.8350    1.0599 H   0  0  0  0  0  0  0  0  0  0  0  0
   -2.2928   -0.0506    1.3273 H   0  0  0  0  0  0  0  0  0  0  0  0
   -1.1930   -2.5969   -0.0447 H   0  0  0  0  0  0  0  0  0  0  0  0
    2.0902   -1.9785    0.2535 H   0  0  0  0  0  0  0  0  0  0  0  0
    3.1768    1.1249    0.1878 H   0  0  0  0  0  0  0  0  0  0  0  0
  1  2  1  0  0  0  0
  2  3  1  0  0  0  0
  2  4  1  0  0  0  0
  4  5  1  0  0  0  0
  4  6  1  0  0  0  0
  6  7  1  0  0  0  0
  6  8  1  0  0  0  0
  8  9  1  0  0  0  0
  1 10  1  0  0  0  0
  8 10  1  0  0  0  0
  8 11  1  0  0  0  0
  6 12  1  0  0  0  0
  4 13  1  0  0  0  0
  2 14  1  0  0  0  0
  1 15  1  0  0  0  0
  1 16  1  0  0  0  0
 11 17  1  0  0  0  0
 12 18  1  0  0  0  0
 13 19  1  0  0  0  0
 14 20  1  0  0  0  0
M  END
