 xtb: 6.7.1 (edcfbbe)
          04092507313D

 38 37  0     0  0            999 V2000
    4.9514   -2.7806   -1.1672 C   0  0  0  0  0  0  0  0  0  0  0  0
    3.6422   -3.3287   -0.6233 C   0  0  0  0  0  0  0  0  0  0  0  0
    2.5158   -2.7192   -1.2889 O   0  0  0  0  0  0  0  0  0  0  0  0
    2.0492   -1.5831   -0.8270 C   0  0  0  0  0  0  0  0  0  0  0  0
    2.4813   -1.0016    0.1491 O   0  0  0  0  0  0  0  0  0  0  0  0
    0.8599   -1.0969   -1.6242 C   0  0  0  0  0  0  0  0  0  0  0  0
    0.6305    0.4001   -1.4140 C   0  0  0  0  0  0  0  0  0  0  0  0
    1.2076    1.0054   -2.1129 H   0  0  0  0  0  0  0  0  0  0  0  0
    0.9318    0.8454    0.0028 C   0  0  0  0  0  0  0  0  0  0  0  0
    0.2077    0.5044    0.9266 O   0  0  0  0  0  0  0  0  0  0  0  0
    1.9099    1.6970    0.0811 O   0  0  0  0  0  0  0  0  0  0  0  0
    2.2467    2.2391    1.3778 C   0  0  0  0  0  0  0  0  0  0  0  0
    1.3439    3.4096    1.7309 C   0  0  0  0  0  0  0  0  0  0  0  0
   -1.1267    0.8307   -1.6644 S   0  0  0  0  0  0  0  0  0  0  0  0
   -2.0505    0.3568    0.1940 P   0  0  0  0  0  0  0  0  0  0  0  0
   -2.3038    1.5966    1.7034 S   0  0  0  0  0  0  0  0  0  0  0  0
   -3.4256    0.2341   -0.6398 O   0  0  0  0  0  0  0  0  0  0  0  0
   -4.6981    0.0971   -0.0068 C   0  0  0  0  0  0  0  0  0  0  0  0
   -1.8540   -1.1940    0.5728 O   0  0  0  0  0  0  0  0  0  0  0  0
   -1.2596   -1.6654    1.7793 C   0  0  0  0  0  0  0  0  0  0  0  0
    5.7793   -3.3051   -0.7017 H   0  0  0  0  0  0  0  0  0  0  0  0
    4.9978   -2.9214   -2.2433 H   0  0  0  0  0  0  0  0  0  0  0  0
    5.0357   -1.7196   -0.9431 H   0  0  0  0  0  0  0  0  0  0  0  0
    3.5584   -3.1406    0.4506 H   0  0  0  0  0  0  0  0  0  0  0  0
    3.5370   -4.3928   -0.8340 H   0  0  0  0  0  0  0  0  0  0  0  0
   -0.0079   -1.6611   -1.2678 H   0  0  0  0  0  0  0  0  0  0  0  0
    0.9907   -1.3275   -2.6800 H   0  0  0  0  0  0  0  0  0  0  0  0
    2.1624    1.4388    2.1172 H   0  0  0  0  0  0  0  0  0  0  0  0
    3.2849    2.5520    1.2703 H   0  0  0  0  0  0  0  0  0  0  0  0
    1.6720    3.8421    2.6702 H   0  0  0  0  0  0  0  0  0  0  0  0
    1.3878    4.1661    0.9522 H   0  0  0  0  0  0  0  0  0  0  0  0
    0.3126    3.0788    1.8430 H   0  0  0  0  0  0  0  0  0  0  0  0
   -4.8521   -0.9386    0.2949 H   0  0  0  0  0  0  0  0  0  0  0  0
   -5.4338    0.3927   -0.7508 H   0  0  0  0  0  0  0  0  0  0  0  0
   -4.7577    0.7504    0.8670 H   0  0  0  0  0  0  0  0  0  0  0  0
   -1.4042   -0.9374    2.5793 H   0  0  0  0  0  0  0  0  0  0  0  0
   -0.1916   -1.8234    1.6320 H   0  0  0  0  0  0  0  0  0  0  0  0
   -1.7621   -2.6010    2.0140 H   0  0  0  0  0  0  0  0  0  0  0  0
  1  2  1  0  0  0  0
  2  3  1  0  0  0  0
  3  4  4  0  0  0  0
  4  5  2  0  0  0  0
  4  6  1  0  0  0  0
  6  7  1  0  0  0  0
  7  8  1  0  0  0  0
  7  9  1  0  0  0  0
  9 10  2  0  0  0  0
  9 11  4  0  0  0  0
 11 12  1  0  0  0  0
 12 13  1  0  0  0  0
  7 14  1  0  0  0  0
 14 15  1  0  0  0  0
 15 16  2  0  0  0  0
 15 17  1  0  0  0  0
 17 18  1  0  0  0  0
 15 19  1  0  0  0  0
 19 20  1  0  0  0  0
  1 21  1  0  0  0  0
  1 22  1  0  0  0  0
  1 23  1  0  0  0  0
  2 24  1  0  0  0  0
  2 25  1  0  0  0  0
  6 26  1  0  0  0  0
  6 27  1  0  0  0  0
 12 28  1  0  0  0  0
 12 29  1  0  0  0  0
 13 30  1  0  0  0  0
 13 31  1  0  0  0  0
 13 32  1  0  0  0  0
 18 33  1  0  0  0  0
 18 34  1  0  0  0  0
 18 35  1  0  0  0  0
 20 36  1  0  0  0  0
 20 37  1  0  0  0  0
 20 38  1  0  0  0  0
M  END
