 xtb: 6.7.1 (edcfbbe)
          04092505213D

 41 40  0     0  0            999 V2000
    5.3809    0.2823   -1.0177 C   0  0  0  0  0  0  0  0  0  0  0  0
    4.9471   -0.2830    0.3182 C   0  0  0  0  0  0  0  0  0  0  0  0
    3.6323   -0.8782    0.2658 O   0  0  0  0  0  0  0  0  0  0  0  0
    2.3183   -0.1224   -0.1898 P   0  0  0  0  0  0  0  0  0  0  0  0
    2.0103   -0.0276   -2.1303 S   0  0  0  0  0  0  0  0  0  0  0  0
    2.4796    1.2424    0.6167 O   0  0  0  0  0  0  0  0  0  0  0  0
    1.5359    2.3259    0.6379 C   0  0  0  0  0  0  0  0  0  0  0  0
    1.7000    3.2410   -0.5590 C   0  0  0  0  0  0  0  0  0  0  0  0
    0.9207   -1.2661    0.9000 S   0  0  0  0  0  0  0  0  0  0  0  0
   -0.1333   -1.9042   -0.4524 C   0  0  0  0  0  0  0  0  0  0  0  0
   -1.8716   -1.9265    0.0048 S   0  0  0  0  0  0  0  0  0  0  0  0
   -2.1683    0.1828    0.1484 P   0  0  0  0  0  0  0  0  0  0  0  0
   -1.3995    1.2218   -1.3240 S   0  0  0  0  0  0  0  0  0  0  0  0
   -1.5814    0.6598    1.5354 O   0  0  0  0  0  0  0  0  0  0  0  0
   -2.1953    0.4721    2.8353 C   0  0  0  0  0  0  0  0  0  0  0  0
   -2.2701   -0.9846    3.2411 C   0  0  0  0  0  0  0  0  0  0  0  0
   -3.7320    0.3362    0.3750 O   0  0  0  0  0  0  0  0  0  0  0  0
   -4.6735    0.4152   -0.7107 C   0  0  0  0  0  0  0  0  0  0  0  0
   -4.7315   -0.8632   -1.5207 C   0  0  0  0  0  0  0  0  0  0  0  0
    5.3321   -0.4844   -1.7877 H   0  0  0  0  0  0  0  0  0  0  0  0
    4.7235    1.1010   -1.3085 H   0  0  0  0  0  0  0  0  0  0  0  0
    6.3985    0.6525   -0.9413 H   0  0  0  0  0  0  0  0  0  0  0  0
    4.9402    0.4926    1.0870 H   0  0  0  0  0  0  0  0  0  0  0  0
    5.5855   -1.1115    0.6296 H   0  0  0  0  0  0  0  0  0  0  0  0
    0.5193    1.9248    0.6820 H   0  0  0  0  0  0  0  0  0  0  0  0
    1.7594    2.8489    1.5700 H   0  0  0  0  0  0  0  0  0  0  0  0
    1.4410    2.7154   -1.4761 H   0  0  0  0  0  0  0  0  0  0  0  0
    1.0323    4.0897   -0.4500 H   0  0  0  0  0  0  0  0  0  0  0  0
    2.7258    3.5930   -0.6281 H   0  0  0  0  0  0  0  0  0  0  0  0
    0.1423   -2.9355   -0.6577 H   0  0  0  0  0  0  0  0  0  0  0  0
    0.0193   -1.2725   -1.3337 H   0  0  0  0  0  0  0  0  0  0  0  0
   -1.5396    1.0379    3.4990 H   0  0  0  0  0  0  0  0  0  0  0  0
   -3.1872    0.9265    2.8120 H   0  0  0  0  0  0  0  0  0  0  0  0
   -1.2933   -1.4534    3.1415 H   0  0  0  0  0  0  0  0  0  0  0  0
   -2.5912   -1.0445    4.2763 H   0  0  0  0  0  0  0  0  0  0  0  0
   -2.9827   -1.5191    2.6173 H   0  0  0  0  0  0  0  0  0  0  0  0
   -5.6226    0.6203   -0.2131 H   0  0  0  0  0  0  0  0  0  0  0  0
   -4.3953    1.2610   -1.3468 H   0  0  0  0  0  0  0  0  0  0  0  0
   -4.8873   -1.7194   -0.8695 H   0  0  0  0  0  0  0  0  0  0  0  0
   -5.5470   -0.7976   -2.2339 H   0  0  0  0  0  0  0  0  0  0  0  0
   -3.7990   -1.0023   -2.0655 H   0  0  0  0  0  0  0  0  0  0  0  0
  1  2  1  0  0  0  0
  2  3  1  0  0  0  0
  3  4  2  0  0  0  0
  4  5  2  0  0  0  0
  4  6  2  0  0  0  0
  6  7  1  0  0  0  0
  7  8  1  0  0  0  0
  4  9  1  0  0  0  0
  9 10  1  0  0  0  0
 10 11  1  0  0  0  0
 11 12  1  0  0  0  0
 12 13  2  0  0  0  0
 12 14  2  0  0  0  0
 14 15  1  0  0  0  0
 15 16  1  0  0  0  0
 12 17  2  0  0  0  0
 17 18  1  0  0  0  0
 18 19  1  0  0  0  0
  1 20  1  0  0  0  0
  1 21  1  0  0  0  0
  1 22  1  0  0  0  0
  2 23  1  0  0  0  0
  2 24  1  0  0  0  0
  7 25  1  0  0  0  0
  7 26  1  0  0  0  0
  8 27  1  0  0  0  0
  8 28  1  0  0  0  0
  8 29  1  0  0  0  0
 10 30  1  0  0  0  0
 10 31  1  0  0  0  0
 15 32  1  0  0  0  0
 15 33  1  0  0  0  0
 16 34  1  0  0  0  0
 16 35  1  0  0  0  0
 16 36  1  0  0  0  0
 18 37  1  0  0  0  0
 18 38  1  0  0  0  0
 19 39  1  0  0  0  0
 19 40  1  0  0  0  0
 19 41  1  0  0  0  0
M  END
