 xtb: 6.7.1 (edcfbbe)
          04092507313D

 38 37  0     0  0            999 V2000
    2.2268   -3.3605    0.6736 C   0  0  0  0  0  0  0  0  0  0  0  0
    3.2294   -2.3813    0.0859 C   0  0  0  0  0  0  0  0  0  0  0  0
    2.6443   -1.6526   -1.0107 O   0  0  0  0  0  0  0  0  0  0  0  0
    2.1070   -0.4756   -0.7886 C   0  0  0  0  0  0  0  0  0  0  0  0
    2.0627    0.0869    0.2871 O   0  0  0  0  0  0  0  0  0  0  0  0
    1.5656    0.1531   -2.0563 C   0  0  0  0  0  0  0  0  0  0  0  0
    0.2796    0.9187   -1.7525 C   0  0  0  0  0  0  0  0  0  0  0  0
    0.0356    1.5814   -2.5867 H   0  0  0  0  0  0  0  0  0  0  0  0
    0.3945    1.7596   -0.4937 C   0  0  0  0  0  0  0  0  0  0  0  0
   -0.3757    1.6357    0.4446 O   0  0  0  0  0  0  0  0  0  0  0  0
    1.3016    2.6861   -0.6094 O   0  0  0  0  0  0  0  0  0  0  0  0
    1.5371    3.5841    0.4987 C   0  0  0  0  0  0  0  0  0  0  0  0
    2.7319    3.1179    1.3122 C   0  0  0  0  0  0  0  0  0  0  0  0
   -1.1526   -0.1991   -1.5865 S   0  0  0  0  0  0  0  0  0  0  0  0
   -1.6889   -0.3454    0.4767 P   0  0  0  0  0  0  0  0  0  0  0  0
   -0.4775   -0.8958    1.9177 S   0  0  0  0  0  0  0  0  0  0  0  0
   -2.7396    0.7871    0.8417 O   0  0  0  0  0  0  0  0  0  0  0  0
   -3.9632    0.9721    0.1065 C   0  0  0  0  0  0  0  0  0  0  0  0
   -2.7566   -1.5402    0.2165 O   0  0  0  0  0  0  0  0  0  0  0  0
   -2.3544   -2.8949    0.0256 C   0  0  0  0  0  0  0  0  0  0  0  0
    1.8423   -4.0152   -0.1034 H   0  0  0  0  0  0  0  0  0  0  0  0
    2.7132   -3.9560    1.4387 H   0  0  0  0  0  0  0  0  0  0  0  0
    1.3981   -2.8204    1.1292 H   0  0  0  0  0  0  0  0  0  0  0  0
    4.0814   -2.9006   -0.3542 H   0  0  0  0  0  0  0  0  0  0  0  0
    3.5623   -1.6676    0.8445 H   0  0  0  0  0  0  0  0  0  0  0  0
    1.3894   -0.6134   -2.8093 H   0  0  0  0  0  0  0  0  0  0  0  0
    2.3197    0.8548   -2.4205 H   0  0  0  0  0  0  0  0  0  0  0  0
    1.7236    4.5513    0.0301 H   0  0  0  0  0  0  0  0  0  0  0  0
    0.6350    3.6216    1.1149 H   0  0  0  0  0  0  0  0  0  0  0  0
    3.6264    3.1064    0.6964 H   0  0  0  0  0  0  0  0  0  0  0  0
    2.8788    3.7892    2.1517 H   0  0  0  0  0  0  0  0  0  0  0  0
    2.5524    2.1120    1.6867 H   0  0  0  0  0  0  0  0  0  0  0  0
   -3.7667    0.9664   -0.9660 H   0  0  0  0  0  0  0  0  0  0  0  0
   -4.3394    1.9410    0.4254 H   0  0  0  0  0  0  0  0  0  0  0  0
   -4.6655    0.1794    0.3578 H   0  0  0  0  0  0  0  0  0  0  0  0
   -3.2500   -3.4927    0.1753 H   0  0  0  0  0  0  0  0  0  0  0  0
   -1.5910   -3.1643    0.7586 H   0  0  0  0  0  0  0  0  0  0  0  0
   -1.9673   -3.0297   -0.9845 H   0  0  0  0  0  0  0  0  0  0  0  0
  1  2  1  0  0  0  0
  2  3  1  0  0  0  0
  3  4  4  0  0  0  0
  4  5  2  0  0  0  0
  4  6  1  0  0  0  0
  6  7  1  0  0  0  0
  7  8  1  0  0  0  0
  7  9  1  0  0  0  0
  9 10  2  0  0  0  0
  9 11  4  0  0  0  0
 11 12  1  0  0  0  0
 12 13  1  0  0  0  0
  7 14  1  0  0  0  0
 14 15  1  0  0  0  0
 15 16  2  0  0  0  0
 15 17  2  0  0  0  0
 17 18  1  0  0  0  0
 15 19  1  0  0  0  0
 19 20  1  0  0  0  0
  1 21  1  0  0  0  0
  1 22  1  0  0  0  0
  1 23  1  0  0  0  0
  2 24  1  0  0  0  0
  2 25  1  0  0  0  0
  6 26  1  0  0  0  0
  6 27  1  0  0  0  0
 12 28  1  0  0  0  0
 12 29  1  0  0  0  0
 13 30  1  0  0  0  0
 13 31  1  0  0  0  0
 13 32  1  0  0  0  0
 18 33  1  0  0  0  0
 18 34  1  0  0  0  0
 18 35  1  0  0  0  0
 20 36  1  0  0  0  0
 20 37  1  0  0  0  0
 20 38  1  0  0  0  0
M  END
