 xtb: 6.7.1 (edcfbbe)
          04032519413D

 20 19  0     0  0            999 V2000
   -1.1458    1.2843   -1.0090 C   0  0  0  0  0  0  0  0  0  0  0  0
   -1.0080    0.1388   -0.0091 C   0  0  0  0  0  0  0  0  0  0  0  0
   -1.8058   -1.0832   -0.4790 C   0  0  0  0  0  0  0  0  0  0  0  0
   -1.5000    0.5783    1.3770 C   0  0  0  0  0  0  0  0  0  0  0  0
    0.4404   -0.2970    0.1631 C   0  0  0  0  0  0  0  0  0  0  0  0
    0.7790   -1.2531    0.8326 O   0  0  0  0  0  0  0  0  0  0  0  0
    1.3010    0.4747   -0.4830 O   0  0  0  0  0  0  0  0  0  0  0  0
    2.6947    0.1707   -0.3835 C   0  0  0  0  0  0  0  0  0  0  0  0
   -0.7702    0.9897   -1.9852 H   0  0  0  0  0  0  0  0  0  0  0  0
   -2.1941    1.5540   -1.1045 H   0  0  0  0  0  0  0  0  0  0  0  0
   -0.5886    2.1557   -0.6766 H   0  0  0  0  0  0  0  0  0  0  0  0
   -1.6417   -1.9177    0.1987 H   0  0  0  0  0  0  0  0  0  0  0  0
   -1.4930   -1.3820   -1.4768 H   0  0  0  0  0  0  0  0  0  0  0  0
   -2.8656   -0.8465   -0.5000 H   0  0  0  0  0  0  0  0  0  0  0  0
   -1.3531   -0.2235    2.0968 H   0  0  0  0  0  0  0  0  0  0  0  0
   -0.9526    1.4546    1.7165 H   0  0  0  0  0  0  0  0  0  0  0  0
   -2.5574    0.8224    1.3304 H   0  0  0  0  0  0  0  0  0  0  0  0
    2.8338   -0.9029   -0.2505 H   0  0  0  0  0  0  0  0  0  0  0  0
    3.1183    0.7002    0.4701 H   0  0  0  0  0  0  0  0  0  0  0  0
    3.1463    0.5150   -1.3095 H   0  0  0  0  0  0  0  0  0  0  0  0
  1  2  1  0  0  0  0
  2  3  1  0  0  0  0
  2  4  1  0  0  0  0
  2  5  1  0  0  0  0
  5  6  2  0  0  0  0
  5  7  1  0  0  0  0
  7  8  1  0  0  0  0
  1  9  1  0  0  0  0
  1 10  1  0  0  0  0
  1 11  1  0  0  0  0
  3 12  1  0  0  0  0
  3 13  1  0  0  0  0
  3 14  1  0  0  0  0
  4 15  1  0  0  0  0
  4 16  1  0  0  0  0
  4 17  1  0  0  0  0
  8 18  1  0  0  0  0
  8 19  1  0  0  0  0
  8 20  1  0  0  0  0
M  END
