 xtb: 6.7.1 (edcfbbe)
          04092507313D

 38 37  0     0  0            999 V2000
    5.4181   -1.2334   -0.5485 C   0  0  0  0  0  0  0  0  0  0  0  0
    4.6973   -1.9344   -1.6887 C   0  0  0  0  0  0  0  0  0  0  0  0
    3.3553   -2.2740   -1.2908 O   0  0  0  0  0  0  0  0  0  0  0  0
    2.3745   -1.4532   -1.6040 C   0  0  0  0  0  0  0  0  0  0  0  0
    2.4909   -0.4557   -2.2827 O   0  0  0  0  0  0  0  0  0  0  0  0
    1.0473   -1.9469   -1.0532 C   0  0  0  0  0  0  0  0  0  0  0  0
    0.2833   -0.7560   -0.4928 C   0  0  0  0  0  0  0  0  0  0  0  0
    0.1530    0.0035   -1.2781 H   0  0  0  0  0  0  0  0  0  0  0  0
    1.0648   -0.0798    0.6179 C   0  0  0  0  0  0  0  0  0  0  0  0
    2.2722   -0.1132    0.6828 O   0  0  0  0  0  0  0  0  0  0  0  0
    0.2745    0.5407    1.4669 O   0  0  0  0  0  0  0  0  0  0  0  0
    0.8585    1.3156    2.5349 C   0  0  0  0  0  0  0  0  0  0  0  0
    0.8366    2.7930    2.1854 C   0  0  0  0  0  0  0  0  0  0  0  0
   -1.3759   -1.2383    0.0757 S   0  0  0  0  0  0  0  0  0  0  0  0
   -2.2398    0.7081    0.1850 P   0  0  0  0  0  0  0  0  0  0  0  0
   -1.4022    2.1028   -0.9048 S   0  0  0  0  0  0  0  0  0  0  0  0
   -3.7652    0.4024   -0.1992 O   0  0  0  0  0  0  0  0  0  0  0  0
   -4.1354    0.0275   -1.5297 C   0  0  0  0  0  0  0  0  0  0  0  0
   -2.4156    1.1126    1.7000 O   0  0  0  0  0  0  0  0  0  0  0  0
   -3.0897    0.2591    2.6463 C   0  0  0  0  0  0  0  0  0  0  0  0
    5.4727   -1.8869    0.3173 H   0  0  0  0  0  0  0  0  0  0  0  0
    6.4205   -0.9633   -0.8634 H   0  0  0  0  0  0  0  0  0  0  0  0
    4.8736   -0.3338   -0.2689 H   0  0  0  0  0  0  0  0  0  0  0  0
    5.1682   -2.8867   -1.9352 H   0  0  0  0  0  0  0  0  0  0  0  0
    4.6460   -1.2921   -2.5726 H   0  0  0  0  0  0  0  0  0  0  0  0
    1.2349   -2.6970   -0.2863 H   0  0  0  0  0  0  0  0  0  0  0  0
    0.4765   -2.3950   -1.8677 H   0  0  0  0  0  0  0  0  0  0  0  0
    0.2367    1.1064    3.4062 H   0  0  0  0  0  0  0  0  0  0  0  0
    1.8796    0.9590    2.6944 H   0  0  0  0  0  0  0  0  0  0  0  0
    1.4513    2.9834    1.3081 H   0  0  0  0  0  0  0  0  0  0  0  0
   -0.1811    3.1084    1.9671 H   0  0  0  0  0  0  0  0  0  0  0  0
    1.2209    3.3668    3.0219 H   0  0  0  0  0  0  0  0  0  0  0  0
   -3.6821    0.7078   -2.2526 H   0  0  0  0  0  0  0  0  0  0  0  0
   -5.2191    0.1045   -1.5657 H   0  0  0  0  0  0  0  0  0  0  0  0
   -3.8156   -0.9952   -1.7285 H   0  0  0  0  0  0  0  0  0  0  0  0
   -2.6108   -0.7197    2.6711 H   0  0  0  0  0  0  0  0  0  0  0  0
   -4.1372    0.1544    2.3712 H   0  0  0  0  0  0  0  0  0  0  0  0
   -2.9913    0.7632    3.6041 H   0  0  0  0  0  0  0  0  0  0  0  0
  1  2  1  0  0  0  0
  2  3  1  0  0  0  0
  3  4  1  0  0  0  0
  4  5  2  0  0  0  0
  4  6  1  0  0  0  0
  6  7  1  0  0  0  0
  7  8  1  0  0  0  0
  7  9  1  0  0  0  0
  9 10  2  0  0  0  0
  9 11  1  0  0  0  0
 11 12  1  0  0  0  0
 12 13  1  0  0  0  0
  7 14  1  0  0  0  0
 14 15  1  0  0  0  0
 15 16  2  0  0  0  0
 15 17  1  0  0  0  0
 17 18  1  0  0  0  0
 15 19  2  0  0  0  0
 19 20  1  0  0  0  0
  1 21  1  0  0  0  0
  1 22  1  0  0  0  0
  1 23  1  0  0  0  0
  2 24  1  0  0  0  0
  2 25  1  0  0  0  0
  6 26  1  0  0  0  0
  6 27  1  0  0  0  0
 12 28  1  0  0  0  0
 12 29  1  0  0  0  0
 13 30  1  0  0  0  0
 13 31  1  0  0  0  0
 13 32  1  0  0  0  0
 18 33  1  0  0  0  0
 18 34  1  0  0  0  0
 18 35  1  0  0  0  0
 20 36  1  0  0  0  0
 20 37  1  0  0  0  0
 20 38  1  0  0  0  0
M  END
