 xtb: 6.7.1 (edcfbbe)
          04092507313D

 38 37  0     0  0            999 V2000
    3.7965   -3.9451   -0.1566 C   0  0  0  0  0  0  0  0  0  0  0  0
    4.0757   -2.8250   -1.1454 C   0  0  0  0  0  0  0  0  0  0  0  0
    2.8472   -2.2997   -1.6911 O   0  0  0  0  0  0  0  0  0  0  0  0
    2.2295   -1.3375   -1.0478 C   0  0  0  0  0  0  0  0  0  0  0  0
    2.6267   -0.8204   -0.0223 O   0  0  0  0  0  0  0  0  0  0  0  0
    0.9328   -0.9473   -1.7233 C   0  0  0  0  0  0  0  0  0  0  0  0
    0.5997    0.5211   -1.4559 C   0  0  0  0  0  0  0  0  0  0  0  0
    1.1115    1.1881   -2.1495 H   0  0  0  0  0  0  0  0  0  0  0  0
    0.9150    0.9327   -0.0327 C   0  0  0  0  0  0  0  0  0  0  0  0
    0.2447    0.5103    0.8971 O   0  0  0  0  0  0  0  0  0  0  0  0
    1.8494    1.8313    0.0524 O   0  0  0  0  0  0  0  0  0  0  0  0
    2.2021    2.3336    1.3611 C   0  0  0  0  0  0  0  0  0  0  0  0
    1.2593    3.4453    1.7911 C   0  0  0  0  0  0  0  0  0  0  0  0
   -1.1906    0.8274   -1.6477 S   0  0  0  0  0  0  0  0  0  0  0  0
   -2.0324    0.2906    0.2318 P   0  0  0  0  0  0  0  0  0  0  0  0
   -2.2771    1.4988    1.7680 S   0  0  0  0  0  0  0  0  0  0  0  0
   -3.4282    0.1316   -0.5595 O   0  0  0  0  0  0  0  0  0  0  0  0
   -4.6757   -0.0520    0.1105 C   0  0  0  0  0  0  0  0  0  0  0  0
   -1.7680   -1.2560    0.5804 O   0  0  0  0  0  0  0  0  0  0  0  0
   -1.1159   -1.7228    1.7589 C   0  0  0  0  0  0  0  0  0  0  0  0
    3.2014   -4.7220   -0.6283 H   0  0  0  0  0  0  0  0  0  0  0  0
    4.7372   -4.3691    0.1785 H   0  0  0  0  0  0  0  0  0  0  0  0
    3.2580   -3.5596    0.7065 H   0  0  0  0  0  0  0  0  0  0  0  0
    4.6224   -3.1894   -2.0149 H   0  0  0  0  0  0  0  0  0  0  0  0
    4.6202   -2.0079   -0.6641 H   0  0  0  0  0  0  0  0  0  0  0  0
    0.1516   -1.5856   -1.2982 H   0  0  0  0  0  0  0  0  0  0  0  0
    0.9847   -1.1471   -2.7920 H   0  0  0  0  0  0  0  0  0  0  0  0
    2.1771    1.4997    2.0670 H   0  0  0  0  0  0  0  0  0  0  0  0
    3.2215    2.6981    1.2368 H   0  0  0  0  0  0  0  0  0  0  0  0
    0.2469    3.0639    1.9139 H   0  0  0  0  0  0  0  0  0  0  0  0
    1.5940    3.8486    2.7409 H   0  0  0  0  0  0  0  0  0  0  0  0
    1.2487    4.2377    1.0478 H   0  0  0  0  0  0  0  0  0  0  0  0
   -4.7307    0.5939    0.9901 H   0  0  0  0  0  0  0  0  0  0  0  0
   -4.7862   -1.0939    0.4098 H   0  0  0  0  0  0  0  0  0  0  0  0
   -5.4428    0.2232   -0.6092 H   0  0  0  0  0  0  0  0  0  0  0  0
   -1.2568   -1.0108    2.5739 H   0  0  0  0  0  0  0  0  0  0  0  0
   -0.0491   -1.8418    1.5719 H   0  0  0  0  0  0  0  0  0  0  0  0
   -1.5781   -2.6780    1.9974 H   0  0  0  0  0  0  0  0  0  0  0  0
  1  2  1  0  0  0  0
  2  3  1  0  0  0  0
  3  4  4  0  0  0  0
  4  5  2  0  0  0  0
  4  6  1  0  0  0  0
  6  7  1  0  0  0  0
  7  8  1  0  0  0  0
  7  9  1  0  0  0  0
  9 10  2  0  0  0  0
  9 11  4  0  0  0  0
 11 12  1  0  0  0  0
 12 13  1  0  0  0  0
  7 14  1  0  0  0  0
 14 15  1  0  0  0  0
 15 16  2  0  0  0  0
 15 17  1  0  0  0  0
 17 18  1  0  0  0  0
 15 19  1  0  0  0  0
 19 20  1  0  0  0  0
  1 21  1  0  0  0  0
  1 22  1  0  0  0  0
  1 23  1  0  0  0  0
  2 24  1  0  0  0  0
  2 25  1  0  0  0  0
  6 26  1  0  0  0  0
  6 27  1  0  0  0  0
 12 28  1  0  0  0  0
 12 29  1  0  0  0  0
 13 30  1  0  0  0  0
 13 31  1  0  0  0  0
 13 32  1  0  0  0  0
 18 33  1  0  0  0  0
 18 34  1  0  0  0  0
 18 35  1  0  0  0  0
 20 36  1  0  0  0  0
 20 37  1  0  0  0  0
 20 38  1  0  0  0  0
M  END
