 xtb: 6.7.1 (edcfbbe)
          04092505213D

 41 40  0     0  0            999 V2000
    3.0717   -0.5424   -3.0059 C   0  0  0  0  0  0  0  0  0  0  0  0
    3.7687   -0.1959   -1.7052 C   0  0  0  0  0  0  0  0  0  0  0  0
    3.0600   -0.8042   -0.6040 O   0  0  0  0  0  0  0  0  0  0  0  0
    2.4553    0.0099    0.6103 P   0  0  0  0  0  0  0  0  0  0  0  0
    2.1889    1.9373    0.3283 S   0  0  0  0  0  0  0  0  0  0  0  0
    3.5160   -0.3091    1.7542 O   0  0  0  0  0  0  0  0  0  0  0  0
    3.5621    0.4236    2.9889 C   0  0  0  0  0  0  0  0  0  0  0  0
    2.4113    0.0498    3.9013 C   0  0  0  0  0  0  0  0  0  0  0  0
    0.8154   -1.2374    1.0987 S   0  0  0  0  0  0  0  0  0  0  0  0
    0.1581   -1.5285   -0.5652 C   0  0  0  0  0  0  0  0  0  0  0  0
   -0.3465   -0.0152   -1.4501 S   0  0  0  0  0  0  0  0  0  0  0  0
   -2.3627    0.0725   -0.8369 P   0  0  0  0  0  0  0  0  0  0  0  0
   -3.4387    1.5655   -1.5049 S   0  0  0  0  0  0  0  0  0  0  0  0
   -2.3530   -0.1051    0.7494 O   0  0  0  0  0  0  0  0  0  0  0  0
   -2.4985    1.0052    1.6461 C   0  0  0  0  0  0  0  0  0  0  0  0
   -1.2686    1.8880    1.6650 C   0  0  0  0  0  0  0  0  0  0  0  0
   -2.7989   -1.3783   -1.3166 O   0  0  0  0  0  0  0  0  0  0  0  0
   -4.1836   -1.7216   -1.5304 C   0  0  0  0  0  0  0  0  0  0  0  0
   -4.9704   -1.7431   -0.2369 C   0  0  0  0  0  0  0  0  0  0  0  0
    3.6281   -0.1114   -3.8318 H   0  0  0  0  0  0  0  0  0  0  0  0
    3.0234   -1.6204   -3.1319 H   0  0  0  0  0  0  0  0  0  0  0  0
    2.0611   -0.1369   -3.0091 H   0  0  0  0  0  0  0  0  0  0  0  0
    3.7992    0.8882   -1.5546 H   0  0  0  0  0  0  0  0  0  0  0  0
    4.7826   -0.5984   -1.6728 H   0  0  0  0  0  0  0  0  0  0  0  0
    4.5256    0.1539    3.4230 H   0  0  0  0  0  0  0  0  0  0  0  0
    3.5440    1.4942    2.7579 H   0  0  0  0  0  0  0  0  0  0  0  0
    2.5233    0.5595    4.8527 H   0  0  0  0  0  0  0  0  0  0  0  0
    1.4668    0.3490    3.4479 H   0  0  0  0  0  0  0  0  0  0  0  0
    2.3927   -1.0245    4.0641 H   0  0  0  0  0  0  0  0  0  0  0  0
   -0.7035   -2.1792   -0.4465 H   0  0  0  0  0  0  0  0  0  0  0  0
    0.9274   -1.9955   -1.1741 H   0  0  0  0  0  0  0  0  0  0  0  0
   -3.3745    1.5864    1.3398 H   0  0  0  0  0  0  0  0  0  0  0  0
   -2.6746    0.5406    2.6169 H   0  0  0  0  0  0  0  0  0  0  0  0
   -0.3878    1.3131    1.9413 H   0  0  0  0  0  0  0  0  0  0  0  0
   -1.1001    2.3230    0.6790 H   0  0  0  0  0  0  0  0  0  0  0  0
   -1.4054    2.6922    2.3803 H   0  0  0  0  0  0  0  0  0  0  0  0
   -4.6132   -0.9990   -2.2310 H   0  0  0  0  0  0  0  0  0  0  0  0
   -4.1371   -2.7076   -1.9948 H   0  0  0  0  0  0  0  0  0  0  0  0
   -5.0406   -0.7352    0.1700 H   0  0  0  0  0  0  0  0  0  0  0  0
   -5.9719   -2.1132   -0.4326 H   0  0  0  0  0  0  0  0  0  0  0  0
   -4.4829   -2.3849    0.4923 H   0  0  0  0  0  0  0  0  0  0  0  0
  1  2  1  0  0  0  0
  2  3  1  0  0  0  0
  3  4  2  0  0  0  0
  4  5  2  0  0  0  0
  4  6  2  0  0  0  0
  6  7  1  0  0  0  0
  7  8  1  0  0  0  0
  4  9  1  0  0  0  0
  9 10  1  0  0  0  0
 10 11  1  0  0  0  0
 11 12  1  0  0  0  0
 12 13  2  0  0  0  0
 12 14  2  0  0  0  0
 14 15  1  0  0  0  0
 15 16  1  0  0  0  0
 12 17  2  0  0  0  0
 17 18  1  0  0  0  0
 18 19  1  0  0  0  0
  1 20  1  0  0  0  0
  1 21  1  0  0  0  0
  1 22  1  0  0  0  0
  2 23  1  0  0  0  0
  2 24  1  0  0  0  0
  7 25  1  0  0  0  0
  7 26  1  0  0  0  0
  8 27  1  0  0  0  0
  8 28  1  0  0  0  0
  8 29  1  0  0  0  0
 10 30  1  0  0  0  0
 10 31  1  0  0  0  0
 15 32  1  0  0  0  0
 15 33  1  0  0  0  0
 16 34  1  0  0  0  0
 16 35  1  0  0  0  0
 16 36  1  0  0  0  0
 18 37  1  0  0  0  0
 18 38  1  0  0  0  0
 19 39  1  0  0  0  0
 19 40  1  0  0  0  0
 19 41  1  0  0  0  0
M  END
