 xtb: 6.7.1 (edcfbbe)
          04092505203D

 41 40  0     0  0            999 V2000
    2.5173    2.4097    0.1493 C   0  0  0  0  0  0  0  0  0  0  0  0
    2.0232    2.0965    1.5456 C   0  0  0  0  0  0  0  0  0  0  0  0
    1.1537    0.9411    1.5891 O   0  0  0  0  0  0  0  0  0  0  0  0
    1.5311   -0.5034    1.0715 P   0  0  0  0  0  0  0  0  0  0  0  0
    0.6108   -1.9450    2.0279 S   0  0  0  0  0  0  0  0  0  0  0  0
    3.1111   -0.5030    1.2998 O   0  0  0  0  0  0  0  0  0  0  0  0
    3.8820   -1.7112    1.4050 C   0  0  0  0  0  0  0  0  0  0  0  0
    3.9114   -2.5019    0.1128 C   0  0  0  0  0  0  0  0  0  0  0  0
    1.3391   -0.5249   -1.0518 S   0  0  0  0  0  0  0  0  0  0  0  0
   -0.0287   -1.6900   -1.2474 C   0  0  0  0  0  0  0  0  0  0  0  0
   -1.5563   -0.9760   -1.9438 S   0  0  0  0  0  0  0  0  0  0  0  0
   -1.8985    0.6657   -0.6505 P   0  0  0  0  0  0  0  0  0  0  0  0
   -3.6994    1.4266   -0.7360 S   0  0  0  0  0  0  0  0  0  0  0  0
   -0.7360    1.7180   -0.9188 O   0  0  0  0  0  0  0  0  0  0  0  0
   -0.8445    2.6926   -1.9750 C   0  0  0  0  0  0  0  0  0  0  0  0
   -0.4363    2.1168   -3.3173 C   0  0  0  0  0  0  0  0  0  0  0  0
   -1.3942    0.1640    0.7744 O   0  0  0  0  0  0  0  0  0  0  0  0
   -2.3504   -0.2267    1.7782 C   0  0  0  0  0  0  0  0  0  0  0  0
   -2.9945   -1.5609    1.4598 C   0  0  0  0  0  0  0  0  0  0  0  0
    3.0763    3.3401    0.1705 H   0  0  0  0  0  0  0  0  0  0  0  0
    3.1654    1.6130   -0.2109 H   0  0  0  0  0  0  0  0  0  0  0  0
    1.6757    2.5097   -0.5298 H   0  0  0  0  0  0  0  0  0  0  0  0
    1.3901    2.8954    1.9357 H   0  0  0  0  0  0  0  0  0  0  0  0
    2.8591    1.9183    2.2258 H   0  0  0  0  0  0  0  0  0  0  0  0
    4.8764   -1.3587    1.6825 H   0  0  0  0  0  0  0  0  0  0  0  0
    3.4642   -2.3176    2.2148 H   0  0  0  0  0  0  0  0  0  0  0  0
    2.9256   -2.9152   -0.0942 H   0  0  0  0  0  0  0  0  0  0  0  0
    4.2100   -1.8663   -0.7168 H   0  0  0  0  0  0  0  0  0  0  0  0
    4.6184   -3.3191    0.2136 H   0  0  0  0  0  0  0  0  0  0  0  0
   -0.2391   -2.1412   -0.2743 H   0  0  0  0  0  0  0  0  0  0  0  0
    0.2673   -2.4430   -1.9738 H   0  0  0  0  0  0  0  0  0  0  0  0
   -1.8748    3.0638   -2.0018 H   0  0  0  0  0  0  0  0  0  0  0  0
   -0.1779    3.5002   -1.6669 H   0  0  0  0  0  0  0  0  0  0  0  0
    0.5395    1.6424   -3.2417 H   0  0  0  0  0  0  0  0  0  0  0  0
   -1.1622    1.3767   -3.6491 H   0  0  0  0  0  0  0  0  0  0  0  0
   -0.3918    2.9184   -4.0476 H   0  0  0  0  0  0  0  0  0  0  0  0
   -1.7658   -0.2741    2.6983 H   0  0  0  0  0  0  0  0  0  0  0  0
   -3.1079    0.5588    1.8570 H   0  0  0  0  0  0  0  0  0  0  0  0
   -2.2410   -2.3436    1.4086 H   0  0  0  0  0  0  0  0  0  0  0  0
   -3.7056   -1.8070    2.2417 H   0  0  0  0  0  0  0  0  0  0  0  0
   -3.5213   -1.5013    0.5074 H   0  0  0  0  0  0  0  0  0  0  0  0
  1  2  1  0  0  0  0
  2  3  1  0  0  0  0
  3  4  2  0  0  0  0
  4  5  2  0  0  0  0
  4  6  2  0  0  0  0
  6  7  1  0  0  0  0
  7  8  1  0  0  0  0
  4  9  1  0  0  0  0
  9 10  1  0  0  0  0
 10 11  1  0  0  0  0
 11 12  1  0  0  0  0
 12 13  2  0  0  0  0
 12 14  2  0  0  0  0
 14 15  1  0  0  0  0
 15 16  1  0  0  0  0
 12 17  1  0  0  0  0
 17 18  1  0  0  0  0
 18 19  1  0  0  0  0
  1 20  1  0  0  0  0
  1 21  1  0  0  0  0
  1 22  1  0  0  0  0
  2 23  1  0  0  0  0
  2 24  1  0  0  0  0
  7 25  1  0  0  0  0
  7 26  1  0  0  0  0
  8 27  1  0  0  0  0
  8 28  1  0  0  0  0
  8 29  1  0  0  0  0
 10 30  1  0  0  0  0
 10 31  1  0  0  0  0
 15 32  1  0  0  0  0
 15 33  1  0  0  0  0
 16 34  1  0  0  0  0
 16 35  1  0  0  0  0
 16 36  1  0  0  0  0
 18 37  1  0  0  0  0
 18 38  1  0  0  0  0
 19 39  1  0  0  0  0
 19 40  1  0  0  0  0
 19 41  1  0  0  0  0
M  END
