 xtb: 6.7.1 (edcfbbe)
          04092505213D

 41 40  0     0  0            999 V2000
    1.2328    0.5092    2.8577 C   0  0  0  0  0  0  0  0  0  0  0  0
    2.7186    0.2977    2.6500 C   0  0  0  0  0  0  0  0  0  0  0  0
    3.1235    0.6051    1.3050 O   0  0  0  0  0  0  0  0  0  0  0  0
    2.7250   -0.3088    0.0657 P   0  0  0  0  0  0  0  0  0  0  0  0
    2.7554   -2.2404    0.4226 S   0  0  0  0  0  0  0  0  0  0  0  0
    3.7167    0.2116   -1.0526 O   0  0  0  0  0  0  0  0  0  0  0  0
    5.0389   -0.3399   -1.2283 C   0  0  0  0  0  0  0  0  0  0  0  0
    5.9511   -0.0262   -0.0607 C   0  0  0  0  0  0  0  0  0  0  0  0
    0.9454    0.5199   -0.7395 S   0  0  0  0  0  0  0  0  0  0  0  0
   -0.0860   -0.9791   -0.7960 C   0  0  0  0  0  0  0  0  0  0  0  0
   -1.4025   -0.9732    0.4392 S   0  0  0  0  0  0  0  0  0  0  0  0
   -2.6681    0.3857   -0.6133 P   0  0  0  0  0  0  0  0  0  0  0  0
   -2.8289    0.0786   -2.5371 S   0  0  0  0  0  0  0  0  0  0  0  0
   -2.0771    1.8139   -0.3084 O   0  0  0  0  0  0  0  0  0  0  0  0
   -1.8418    2.3326    1.0235 C   0  0  0  0  0  0  0  0  0  0  0  0
   -3.0108    3.1756    1.4895 C   0  0  0  0  0  0  0  0  0  0  0  0
   -4.0235    0.3694    0.2155 O   0  0  0  0  0  0  0  0  0  0  0  0
   -5.0790   -0.5757   -0.0403 C   0  0  0  0  0  0  0  0  0  0  0  0
   -4.6670   -1.9996    0.2716 C   0  0  0  0  0  0  0  0  0  0  0  0
    0.6659   -0.2196    2.2782 H   0  0  0  0  0  0  0  0  0  0  0  0
    0.9940    0.3794    3.9082 H   0  0  0  0  0  0  0  0  0  0  0  0
    0.9498    1.5108    2.5437 H   0  0  0  0  0  0  0  0  0  0  0  0
    2.9935   -0.7397    2.8668 H   0  0  0  0  0  0  0  0  0  0  0  0
    3.3116    0.9764    3.2645 H   0  0  0  0  0  0  0  0  0  0  0  0
    4.9455   -1.4219   -1.3665 H   0  0  0  0  0  0  0  0  0  0  0  0
    5.3903    0.1221   -2.1519 H   0  0  0  0  0  0  0  0  0  0  0  0
    5.6088   -0.5493    0.8310 H   0  0  0  0  0  0  0  0  0  0  0  0
    6.9591   -0.3535   -0.2959 H   0  0  0  0  0  0  0  0  0  0  0  0
    5.9534    1.0425    0.1366 H   0  0  0  0  0  0  0  0  0  0  0  0
    0.5391   -1.8523   -0.5973 H   0  0  0  0  0  0  0  0  0  0  0  0
   -0.5408   -1.0323   -1.7857 H   0  0  0  0  0  0  0  0  0  0  0  0
   -1.6631    1.4951    1.7037 H   0  0  0  0  0  0  0  0  0  0  0  0
   -0.9331    2.9290    0.9197 H   0  0  0  0  0  0  0  0  0  0  0  0
   -3.9029    2.5625    1.5837 H   0  0  0  0  0  0  0  0  0  0  0  0
   -2.7710    3.6113    2.4544 H   0  0  0  0  0  0  0  0  0  0  0  0
   -3.2050    3.9705    0.7747 H   0  0  0  0  0  0  0  0  0  0  0  0
   -5.8897   -0.2404    0.6080 H   0  0  0  0  0  0  0  0  0  0  0  0
   -5.3774   -0.4822   -1.0889 H   0  0  0  0  0  0  0  0  0  0  0  0
   -5.5339   -2.6478    0.1933 H   0  0  0  0  0  0  0  0  0  0  0  0
   -3.9131   -2.3346   -0.4392 H   0  0  0  0  0  0  0  0  0  0  0  0
   -4.2558   -2.0648    1.2758 H   0  0  0  0  0  0  0  0  0  0  0  0
  1  2  1  0  0  0  0
  2  3  1  0  0  0  0
  3  4  2  0  0  0  0
  4  5  2  0  0  0  0
  4  6  2  0  0  0  0
  6  7  1  0  0  0  0
  7  8  1  0  0  0  0
  4  9  1  0  0  0  0
  9 10  1  0  0  0  0
 10 11  1  0  0  0  0
 11 12  1  0  0  0  0
 12 13  2  0  0  0  0
 12 14  2  0  0  0  0
 14 15  1  0  0  0  0
 15 16  1  0  0  0  0
 12 17  2  0  0  0  0
 17 18  1  0  0  0  0
 18 19  1  0  0  0  0
  1 20  1  0  0  0  0
  1 21  1  0  0  0  0
  1 22  1  0  0  0  0
  2 23  1  0  0  0  0
  2 24  1  0  0  0  0
  7 25  1  0  0  0  0
  7 26  1  0  0  0  0
  8 27  1  0  0  0  0
  8 28  1  0  0  0  0
  8 29  1  0  0  0  0
 10 30  1  0  0  0  0
 10 31  1  0  0  0  0
 15 32  1  0  0  0  0
 15 33  1  0  0  0  0
 16 34  1  0  0  0  0
 16 35  1  0  0  0  0
 16 36  1  0  0  0  0
 18 37  1  0  0  0  0
 18 38  1  0  0  0  0
 19 39  1  0  0  0  0
 19 40  1  0  0  0  0
 19 41  1  0  0  0  0
M  END
