 xtb: 6.7.1 (edcfbbe)
          04092505213D

 41 40  0     0  0            999 V2000
    1.5334   -2.5299    1.2236 C   0  0  0  0  0  0  0  0  0  0  0  0
    2.9517   -2.4071    0.7054 C   0  0  0  0  0  0  0  0  0  0  0  0
    3.4029   -1.0421    0.6840 O   0  0  0  0  0  0  0  0  0  0  0  0
    2.9262    0.0127   -0.4081 P   0  0  0  0  0  0  0  0  0  0  0  0
    2.7932   -0.6776   -2.2373 S   0  0  0  0  0  0  0  0  0  0  0  0
    4.0382    1.1249   -0.2863 O   0  0  0  0  0  0  0  0  0  0  0  0
    4.7282    1.4917    0.9336 C   0  0  0  0  0  0  0  0  0  0  0  0
    3.7862    1.9957    2.0056 C   0  0  0  0  0  0  0  0  0  0  0  0
    1.1464    0.9341    0.3431 S   0  0  0  0  0  0  0  0  0  0  0  0
    0.0039    0.6023   -1.0201 C   0  0  0  0  0  0  0  0  0  0  0  0
   -1.1601   -0.7441   -0.6978 S   0  0  0  0  0  0  0  0  0  0  0  0
   -2.9181    0.3750   -0.2086 P   0  0  0  0  0  0  0  0  0  0  0  0
   -2.7466    2.3174   -0.4022 S   0  0  0  0  0  0  0  0  0  0  0  0
   -3.4065   -0.1260    1.2206 O   0  0  0  0  0  0  0  0  0  0  0  0
   -2.9449    0.4500    2.4545 C   0  0  0  0  0  0  0  0  0  0  0  0
   -1.5393    0.0029    2.8004 C   0  0  0  0  0  0  0  0  0  0  0  0
   -4.0420   -0.2046   -1.1519 O   0  0  0  0  0  0  0  0  0  0  0  0
   -4.7582   -1.4457   -0.9382 C   0  0  0  0  0  0  0  0  0  0  0  0
   -3.8414   -2.6498   -0.9175 C   0  0  0  0  0  0  0  0  0  0  0  0
    1.4326   -2.0076    2.1714 H   0  0  0  0  0  0  0  0  0  0  0  0
    0.8301   -2.1075    0.5075 H   0  0  0  0  0  0  0  0  0  0  0  0
    1.2956   -3.5793    1.3636 H   0  0  0  0  0  0  0  0  0  0  0  0
    3.0342   -2.8179   -0.3058 H   0  0  0  0  0  0  0  0  0  0  0  0
    3.6639   -2.9045    1.3660 H   0  0  0  0  0  0  0  0  0  0  0  0
    5.2874    0.6214    1.2821 H   0  0  0  0  0  0  0  0  0  0  0  0
    5.4178    2.2700    0.6034 H   0  0  0  0  0  0  0  0  0  0  0  0
    3.1071    1.2023    2.3128 H   0  0  0  0  0  0  0  0  0  0  0  0
    4.3665    2.3179    2.8646 H   0  0  0  0  0  0  0  0  0  0  0  0
    3.1988    2.8324    1.6359 H   0  0  0  0  0  0  0  0  0  0  0  0
    0.5898    0.3225   -1.8980 H   0  0  0  0  0  0  0  0  0  0  0  0
   -0.5680    1.5159   -1.1942 H   0  0  0  0  0  0  0  0  0  0  0  0
   -2.9982    1.5403    2.3725 H   0  0  0  0  0  0  0  0  0  0  0  0
   -3.6695    0.0987    3.1910 H   0  0  0  0  0  0  0  0  0  0  0  0
   -0.8220    0.4381    2.1063 H   0  0  0  0  0  0  0  0  0  0  0  0
   -1.2966    0.3374    3.8037 H   0  0  0  0  0  0  0  0  0  0  0  0
   -1.4672   -1.0806    2.7537 H   0  0  0  0  0  0  0  0  0  0  0  0
   -5.3134   -1.3606   -0.0022 H   0  0  0  0  0  0  0  0  0  0  0  0
   -5.4509   -1.4800   -1.7805 H   0  0  0  0  0  0  0  0  0  0  0  0
   -3.1582   -2.5877   -0.0723 H   0  0  0  0  0  0  0  0  0  0  0  0
   -4.4406   -3.5501   -0.8236 H   0  0  0  0  0  0  0  0  0  0  0  0
   -3.2579   -2.7016   -1.8332 H   0  0  0  0  0  0  0  0  0  0  0  0
  1  2  1  0  0  0  0
  2  3  1  0  0  0  0
  3  4  2  0  0  0  0
  4  5  2  0  0  0  0
  4  6  2  0  0  0  0
  6  7  1  0  0  0  0
  7  8  1  0  0  0  0
  4  9  1  0  0  0  0
  9 10  1  0  0  0  0
 10 11  1  0  0  0  0
 11 12  1  0  0  0  0
 12 13  2  0  0  0  0
 12 14  2  0  0  0  0
 14 15  1  0  0  0  0
 15 16  1  0  0  0  0
 12 17  2  0  0  0  0
 17 18  1  0  0  0  0
 18 19  1  0  0  0  0
  1 20  1  0  0  0  0
  1 21  1  0  0  0  0
  1 22  1  0  0  0  0
  2 23  1  0  0  0  0
  2 24  1  0  0  0  0
  7 25  1  0  0  0  0
  7 26  1  0  0  0  0
  8 27  1  0  0  0  0
  8 28  1  0  0  0  0
  8 29  1  0  0  0  0
 10 30  1  0  0  0  0
 10 31  1  0  0  0  0
 15 32  1  0  0  0  0
 15 33  1  0  0  0  0
 16 34  1  0  0  0  0
 16 35  1  0  0  0  0
 16 36  1  0  0  0  0
 18 37  1  0  0  0  0
 18 38  1  0  0  0  0
 19 39  1  0  0  0  0
 19 40  1  0  0  0  0
 19 41  1  0  0  0  0
M  END
