 xtb: 6.7.1 (edcfbbe)
          04092505213D

 41 40  0     0  0            999 V2000
    4.8549   -0.5842   -1.8674 C   0  0  0  0  0  0  0  0  0  0  0  0
    4.2008   -1.7894   -1.2236 C   0  0  0  0  0  0  0  0  0  0  0  0
    3.4734   -1.4603   -0.0266 O   0  0  0  0  0  0  0  0  0  0  0  0
    2.3692   -0.3275    0.1082 P   0  0  0  0  0  0  0  0  0  0  0  0
    2.9874    1.5306    0.2846 S   0  0  0  0  0  0  0  0  0  0  0  0
    1.5571   -0.8667    1.3578 O   0  0  0  0  0  0  0  0  0  0  0  0
    1.7267   -0.3220    2.6796 C   0  0  0  0  0  0  0  0  0  0  0  0
    3.0440   -0.7620    3.2828 C   0  0  0  0  0  0  0  0  0  0  0  0
    1.0389   -0.7299   -1.4856 S   0  0  0  0  0  0  0  0  0  0  0  0
    0.1215    0.8311   -1.3673 C   0  0  0  0  0  0  0  0  0  0  0  0
   -0.7795    1.0297    0.1861 S   0  0  0  0  0  0  0  0  0  0  0  0
   -2.7546    0.4602   -0.4232 P   0  0  0  0  0  0  0  0  0  0  0  0
   -2.9465   -0.0028   -2.3149 S   0  0  0  0  0  0  0  0  0  0  0  0
   -3.6595    1.6944   -0.0381 O   0  0  0  0  0  0  0  0  0  0  0  0
   -4.1443    2.0062    1.2902 C   0  0  0  0  0  0  0  0  0  0  0  0
   -3.0225    2.2341    2.2806 C   0  0  0  0  0  0  0  0  0  0  0  0
   -3.2426   -0.6384    0.6218 O   0  0  0  0  0  0  0  0  0  0  0  0
   -3.0907   -2.0523    0.4125 C   0  0  0  0  0  0  0  0  0  0  0  0
   -1.6387   -2.4771    0.3464 C   0  0  0  0  0  0  0  0  0  0  0  0
    5.4860   -0.0652   -1.1497 H   0  0  0  0  0  0  0  0  0  0  0  0
    5.4589   -0.9079   -2.7090 H   0  0  0  0  0  0  0  0  0  0  0  0
    4.0952    0.1105   -2.2238 H   0  0  0  0  0  0  0  0  0  0  0  0
    4.9446   -2.5112   -0.8812 H   0  0  0  0  0  0  0  0  0  0  0  0
    3.5089   -2.2720   -1.9197 H   0  0  0  0  0  0  0  0  0  0  0  0
    1.6693    0.7698    2.6196 H   0  0  0  0  0  0  0  0  0  0  0  0
    0.8735   -0.7054    3.2401 H   0  0  0  0  0  0  0  0  0  0  0  0
    3.8662   -0.3650    2.6881 H   0  0  0  0  0  0  0  0  0  0  0  0
    3.1244   -0.3846    4.2972 H   0  0  0  0  0  0  0  0  0  0  0  0
    3.1105   -1.8465    3.2896 H   0  0  0  0  0  0  0  0  0  0  0  0
   -0.5851    0.8398   -2.1991 H   0  0  0  0  0  0  0  0  0  0  0  0
    0.8283    1.6577   -1.4299 H   0  0  0  0  0  0  0  0  0  0  0  0
   -4.7336    2.9109    1.1332 H   0  0  0  0  0  0  0  0  0  0  0  0
   -4.7926    1.1905    1.6160 H   0  0  0  0  0  0  0  0  0  0  0  0
   -3.4463    2.5251    3.2367 H   0  0  0  0  0  0  0  0  0  0  0  0
   -2.4459    1.3198    2.4112 H   0  0  0  0  0  0  0  0  0  0  0  0
   -2.3561    3.0182    1.9302 H   0  0  0  0  0  0  0  0  0  0  0  0
   -3.6017   -2.4952    1.2689 H   0  0  0  0  0  0  0  0  0  0  0  0
   -3.6085   -2.3228   -0.5126 H   0  0  0  0  0  0  0  0  0  0  0  0
   -1.1809   -2.0962   -0.5658 H   0  0  0  0  0  0  0  0  0  0  0  0
   -1.0850   -2.0987    1.2028 H   0  0  0  0  0  0  0  0  0  0  0  0
   -1.5802   -3.5607    0.3339 H   0  0  0  0  0  0  0  0  0  0  0  0
  1  2  1  0  0  0  0
  2  3  1  0  0  0  0
  3  4  2  0  0  0  0
  4  5  2  0  0  0  0
  4  6  2  0  0  0  0
  6  7  1  0  0  0  0
  7  8  1  0  0  0  0
  4  9  1  0  0  0  0
  9 10  1  0  0  0  0
 10 11  1  0  0  0  0
 11 12  1  0  0  0  0
 12 13  2  0  0  0  0
 12 14  2  0  0  0  0
 14 15  1  0  0  0  0
 15 16  1  0  0  0  0
 12 17  2  0  0  0  0
 17 18  1  0  0  0  0
 18 19  1  0  0  0  0
  1 20  1  0  0  0  0
  1 21  1  0  0  0  0
  1 22  1  0  0  0  0
  2 23  1  0  0  0  0
  2 24  1  0  0  0  0
  7 25  1  0  0  0  0
  7 26  1  0  0  0  0
  8 27  1  0  0  0  0
  8 28  1  0  0  0  0
  8 29  1  0  0  0  0
 10 30  1  0  0  0  0
 10 31  1  0  0  0  0
 15 32  1  0  0  0  0
 15 33  1  0  0  0  0
 16 34  1  0  0  0  0
 16 35  1  0  0  0  0
 16 36  1  0  0  0  0
 18 37  1  0  0  0  0
 18 38  1  0  0  0  0
 19 39  1  0  0  0  0
 19 40  1  0  0  0  0
 19 41  1  0  0  0  0
M  END
