 xtb: 6.7.1 (edcfbbe)
          04092507313D

 38 37  0     0  0            999 V2000
    4.0366   -2.6001    0.9829 C   0  0  0  0  0  0  0  0  0  0  0  0
    2.5837   -2.3812    0.6124 C   0  0  0  0  0  0  0  0  0  0  0  0
    2.5306   -1.3452   -0.3899 O   0  0  0  0  0  0  0  0  0  0  0  0
    1.4029   -1.1438   -1.0246 C   0  0  0  0  0  0  0  0  0  0  0  0
    0.3805   -1.7761   -0.8203 O   0  0  0  0  0  0  0  0  0  0  0  0
    1.4982   -0.0277   -2.0393 C   0  0  0  0  0  0  0  0  0  0  0  0
    0.4237    1.0261   -1.7608 C   0  0  0  0  0  0  0  0  0  0  0  0
    0.4391    1.7822   -2.5508 H   0  0  0  0  0  0  0  0  0  0  0  0
    0.6097    1.7245   -0.4249 C   0  0  0  0  0  0  0  0  0  0  0  0
   -0.3186    1.9598    0.3222 O   0  0  0  0  0  0  0  0  0  0  0  0
    1.8608    2.0150   -0.1889 O   0  0  0  0  0  0  0  0  0  0  0  0
    2.1883    2.6731    1.0547 C   0  0  0  0  0  0  0  0  0  0  0  0
    1.9605    4.1719    0.9558 C   0  0  0  0  0  0  0  0  0  0  0  0
   -1.2758    0.3501   -1.8176 S   0  0  0  0  0  0  0  0  0  0  0  0
   -1.6543   -0.2840    0.1620 P   0  0  0  0  0  0  0  0  0  0  0  0
   -0.5001   -0.5605    1.7407 S   0  0  0  0  0  0  0  0  0  0  0  0
   -2.8364    0.7603    0.4146 O   0  0  0  0  0  0  0  0  0  0  0  0
   -3.5529    0.8061    1.6511 C   0  0  0  0  0  0  0  0  0  0  0  0
   -2.5597   -1.5870   -0.0949 O   0  0  0  0  0  0  0  0  0  0  0  0
   -2.1278   -2.9407    0.0181 C   0  0  0  0  0  0  0  0  0  0  0  0
    4.0971   -3.3746    1.7399 H   0  0  0  0  0  0  0  0  0  0  0  0
    4.6028   -2.9064    0.1085 H   0  0  0  0  0  0  0  0  0  0  0  0
    4.4621   -1.6823    1.3761 H   0  0  0  0  0  0  0  0  0  0  0  0
    1.9860   -2.0545    1.4698 H   0  0  0  0  0  0  0  0  0  0  0  0
    2.1249   -3.2840    0.1974 H   0  0  0  0  0  0  0  0  0  0  0  0
    1.3190   -0.4479   -3.0296 H   0  0  0  0  0  0  0  0  0  0  0  0
    2.4884    0.4233   -1.9875 H   0  0  0  0  0  0  0  0  0  0  0  0
    1.5792    2.2333    1.8500 H   0  0  0  0  0  0  0  0  0  0  0  0
    3.2410    2.4368    1.2074 H   0  0  0  0  0  0  0  0  0  0  0  0
    2.2803    4.6414    1.8800 H   0  0  0  0  0  0  0  0  0  0  0  0
    2.5302    4.5836    0.1274 H   0  0  0  0  0  0  0  0  0  0  0  0
    0.9043    4.3818    0.8025 H   0  0  0  0  0  0  0  0  0  0  0  0
   -4.2448   -0.0342    1.7113 H   0  0  0  0  0  0  0  0  0  0  0  0
   -4.0909    1.7505    1.6422 H   0  0  0  0  0  0  0  0  0  0  0  0
   -2.8560    0.7728    2.4914 H   0  0  0  0  0  0  0  0  0  0  0  0
   -1.6463   -3.2525   -0.9066 H   0  0  0  0  0  0  0  0  0  0  0  0
   -3.0270   -3.5223    0.2071 H   0  0  0  0  0  0  0  0  0  0  0  0
   -1.4233   -3.0392    0.8458 H   0  0  0  0  0  0  0  0  0  0  0  0
  1  2  1  0  0  0  0
  2  3  1  0  0  0  0
  3  4  4  0  0  0  0
  4  5  2  0  0  0  0
  4  6  1  0  0  0  0
  6  7  1  0  0  0  0
  7  8  1  0  0  0  0
  7  9  1  0  0  0  0
  9 10  2  0  0  0  0
  9 11  4  0  0  0  0
 11 12  1  0  0  0  0
 12 13  1  0  0  0  0
  7 14  1  0  0  0  0
 14 15  1  0  0  0  0
 15 16  2  0  0  0  0
 15 17  1  0  0  0  0
 17 18  1  0  0  0  0
 15 19  1  0  0  0  0
 19 20  1  0  0  0  0
  1 21  1  0  0  0  0
  1 22  1  0  0  0  0
  1 23  1  0  0  0  0
  2 24  1  0  0  0  0
  2 25  1  0  0  0  0
  6 26  1  0  0  0  0
  6 27  1  0  0  0  0
 12 28  1  0  0  0  0
 12 29  1  0  0  0  0
 13 30  1  0  0  0  0
 13 31  1  0  0  0  0
 13 32  1  0  0  0  0
 18 33  1  0  0  0  0
 18 34  1  0  0  0  0
 18 35  1  0  0  0  0
 20 36  1  0  0  0  0
 20 37  1  0  0  0  0
 20 38  1  0  0  0  0
M  END
