 xtb: 6.7.1 (edcfbbe)
          04092507313D

 38 37  0     0  0            999 V2000
    3.6094   -4.4124   -1.0257 C   0  0  0  0  0  0  0  0  0  0  0  0
    2.1796   -3.9325   -1.2166 C   0  0  0  0  0  0  0  0  0  0  0  0
    1.9234   -2.7448   -0.4404 O   0  0  0  0  0  0  0  0  0  0  0  0
    2.2574   -1.5782   -0.9534 C   0  0  0  0  0  0  0  0  0  0  0  0
    2.7289   -1.4179   -2.0571 O   0  0  0  0  0  0  0  0  0  0  0  0
    1.9397   -0.4428   -0.0007 C   0  0  0  0  0  0  0  0  0  0  0  0
    1.0633    0.5859   -0.7075 C   0  0  0  0  0  0  0  0  0  0  0  0
    1.5326    0.8500   -1.6635 H   0  0  0  0  0  0  0  0  0  0  0  0
    0.9223    1.8658    0.0982 C   0  0  0  0  0  0  0  0  0  0  0  0
    1.8369    2.3303    0.7346 O   0  0  0  0  0  0  0  0  0  0  0  0
   -0.2715    2.4125   -0.0301 O   0  0  0  0  0  0  0  0  0  0  0  0
   -0.5186    3.6655    0.6403 C   0  0  0  0  0  0  0  0  0  0  0  0
   -0.1021    4.8348   -0.2347 C   0  0  0  0  0  0  0  0  0  0  0  0
   -0.5478   -0.1125   -1.1866 S   0  0  0  0  0  0  0  0  0  0  0  0
   -1.6192    0.0561    0.6501 P   0  0  0  0  0  0  0  0  0  0  0  0
   -0.6197    0.2716    2.3223 S   0  0  0  0  0  0  0  0  0  0  0  0
   -2.7331    1.1584    0.4648 O   0  0  0  0  0  0  0  0  0  0  0  0
   -3.6443    1.1508   -0.6536 C   0  0  0  0  0  0  0  0  0  0  0  0
   -2.5151   -1.2714    0.6011 O   0  0  0  0  0  0  0  0  0  0  0  0
   -1.9262   -2.5620    0.7904 C   0  0  0  0  0  0  0  0  0  0  0  0
    3.8129   -4.5731    0.0295 H   0  0  0  0  0  0  0  0  0  0  0  0
    3.7495   -5.3440   -1.5638 H   0  0  0  0  0  0  0  0  0  0  0  0
    4.3071   -3.6732   -1.4126 H   0  0  0  0  0  0  0  0  0  0  0  0
    1.4629   -4.6625   -0.8403 H   0  0  0  0  0  0  0  0  0  0  0  0
    1.9835   -3.7075   -2.2687 H   0  0  0  0  0  0  0  0  0  0  0  0
    2.8687    0.0512    0.2943 H   0  0  0  0  0  0  0  0  0  0  0  0
    1.4512   -0.8347    0.8925 H   0  0  0  0  0  0  0  0  0  0  0  0
   -1.5920    3.6622    0.8326 H   0  0  0  0  0  0  0  0  0  0  0  0
    0.0312    3.6606    1.5858 H   0  0  0  0  0  0  0  0  0  0  0  0
    0.9729    4.8149   -0.3984 H   0  0  0  0  0  0  0  0  0  0  0  0
   -0.6103    4.7862   -1.1938 H   0  0  0  0  0  0  0  0  0  0  0  0
   -0.3650    5.7614    0.2645 H   0  0  0  0  0  0  0  0  0  0  0  0
   -4.2285    2.0614   -0.5506 H   0  0  0  0  0  0  0  0  0  0  0  0
   -4.2841    0.2723   -0.6031 H   0  0  0  0  0  0  0  0  0  0  0  0
   -3.0838    1.1532   -1.5882 H   0  0  0  0  0  0  0  0  0  0  0  0
   -1.2736   -2.8012   -0.0498 H   0  0  0  0  0  0  0  0  0  0  0  0
   -2.7584   -3.2592    0.8403 H   0  0  0  0  0  0  0  0  0  0  0  0
   -1.3545   -2.5812    1.7195 H   0  0  0  0  0  0  0  0  0  0  0  0
  1  2  1  0  0  0  0
  2  3  1  0  0  0  0
  3  4  1  0  0  0  0
  4  5  2  0  0  0  0
  4  6  1  0  0  0  0
  6  7  1  0  0  0  0
  7  8  1  0  0  0  0
  7  9  1  0  0  0  0
  9 10  2  0  0  0  0
  9 11  1  0  0  0  0
 11 12  1  0  0  0  0
 12 13  1  0  0  0  0
  7 14  1  0  0  0  0
 14 15  1  0  0  0  0
 15 16  2  0  0  0  0
 15 17  2  0  0  0  0
 17 18  1  0  0  0  0
 15 19  1  0  0  0  0
 19 20  1  0  0  0  0
  1 21  1  0  0  0  0
  1 22  1  0  0  0  0
  1 23  1  0  0  0  0
  2 24  1  0  0  0  0
  2 25  1  0  0  0  0
  6 26  1  0  0  0  0
  6 27  1  0  0  0  0
 12 28  1  0  0  0  0
 12 29  1  0  0  0  0
 13 30  1  0  0  0  0
 13 31  1  0  0  0  0
 13 32  1  0  0  0  0
 18 33  1  0  0  0  0
 18 34  1  0  0  0  0
 18 35  1  0  0  0  0
 20 36  1  0  0  0  0
 20 37  1  0  0  0  0
 20 38  1  0  0  0  0
M  END
