 xtb: 6.7.1 (edcfbbe)
          04092505203D

 41 40  0     0  0            999 V2000
    4.3738   -0.8274   -1.9368 C   0  0  0  0  0  0  0  0  0  0  0  0
    4.5105   -0.3911   -0.4921 C   0  0  0  0  0  0  0  0  0  0  0  0
    3.3496   -0.7143    0.2905 O   0  0  0  0  0  0  0  0  0  0  0  0
    1.9282   -0.0211    0.0659 P   0  0  0  0  0  0  0  0  0  0  0  0
    2.0813    1.8970   -0.3404 S   0  0  0  0  0  0  0  0  0  0  0  0
    1.2180   -0.4296    1.4179 O   0  0  0  0  0  0  0  0  0  0  0  0
    1.4465    0.3086    2.6364 C   0  0  0  0  0  0  0  0  0  0  0  0
    0.3388   -0.0384    3.6090 C   0  0  0  0  0  0  0  0  0  0  0  0
    0.9685   -1.2534   -1.3376 S   0  0  0  0  0  0  0  0  0  0  0  0
    0.0467   -0.0002   -2.2787 C   0  0  0  0  0  0  0  0  0  0  0  0
   -1.7663   -0.0850   -2.1221 S   0  0  0  0  0  0  0  0  0  0  0  0
   -2.0260    0.0662   -0.0201 P   0  0  0  0  0  0  0  0  0  0  0  0
   -3.8780    0.3699    0.5327 S   0  0  0  0  0  0  0  0  0  0  0  0
   -0.9407    1.1481    0.4161 O   0  0  0  0  0  0  0  0  0  0  0  0
   -1.2843    2.5504    0.3515 C   0  0  0  0  0  0  0  0  0  0  0  0
   -1.6927    3.0606    1.7182 C   0  0  0  0  0  0  0  0  0  0  0  0
   -1.3229   -1.1911    0.6342 O   0  0  0  0  0  0  0  0  0  0  0  0
   -2.0323   -2.4223    0.8566 C   0  0  0  0  0  0  0  0  0  0  0  0
   -2.3050   -3.1628   -0.4379 C   0  0  0  0  0  0  0  0  0  0  0  0
    5.3228   -0.6848   -2.4437 H   0  0  0  0  0  0  0  0  0  0  0  0
    4.0888   -1.8751   -1.9900 H   0  0  0  0  0  0  0  0  0  0  0  0
    3.6139   -0.2293   -2.4375 H   0  0  0  0  0  0  0  0  0  0  0  0
    4.6769    0.6894   -0.4313 H   0  0  0  0  0  0  0  0  0  0  0  0
    5.3204   -0.9191    0.0130 H   0  0  0  0  0  0  0  0  0  0  0  0
    2.4281    0.0269    3.0276 H   0  0  0  0  0  0  0  0  0  0  0  0
    1.4504    1.3783    2.3983 H   0  0  0  0  0  0  0  0  0  0  0  0
    0.3617   -1.1002    3.8359 H   0  0  0  0  0  0  0  0  0  0  0  0
    0.4726    0.5302    4.5238 H   0  0  0  0  0  0  0  0  0  0  0  0
   -0.6271    0.2030    3.1713 H   0  0  0  0  0  0  0  0  0  0  0  0
    0.2306   -0.1798   -3.3351 H   0  0  0  0  0  0  0  0  0  0  0  0
    0.4027    0.9890   -1.9810 H   0  0  0  0  0  0  0  0  0  0  0  0
   -0.3812    3.0511   -0.0064 H   0  0  0  0  0  0  0  0  0  0  0  0
   -2.0930    2.6913   -0.3733 H   0  0  0  0  0  0  0  0  0  0  0  0
   -0.8925    2.8960    2.4344 H   0  0  0  0  0  0  0  0  0  0  0  0
   -1.9013    4.1234    1.6510 H   0  0  0  0  0  0  0  0  0  0  0  0
   -2.5872    2.5427    2.0584 H   0  0  0  0  0  0  0  0  0  0  0  0
   -1.3693   -2.9894    1.5118 H   0  0  0  0  0  0  0  0  0  0  0  0
   -2.9680   -2.1945    1.3782 H   0  0  0  0  0  0  0  0  0  0  0  0
   -1.3808   -3.3040   -0.9939 H   0  0  0  0  0  0  0  0  0  0  0  0
   -2.7401   -4.1308   -0.2107 H   0  0  0  0  0  0  0  0  0  0  0  0
   -3.0046   -2.5967   -1.0522 H   0  0  0  0  0  0  0  0  0  0  0  0
  1  2  1  0  0  0  0
  2  3  1  0  0  0  0
  3  4  2  0  0  0  0
  4  5  2  0  0  0  0
  4  6  2  0  0  0  0
  6  7  1  0  0  0  0
  7  8  1  0  0  0  0
  4  9  1  0  0  0  0
  9 10  1  0  0  0  0
 10 11  1  0  0  0  0
 11 12  1  0  0  0  0
 12 13  2  0  0  0  0
 12 14  1  0  0  0  0
 14 15  1  0  0  0  0
 15 16  1  0  0  0  0
 12 17  2  0  0  0  0
 17 18  1  0  0  0  0
 18 19  1  0  0  0  0
  1 20  1  0  0  0  0
  1 21  1  0  0  0  0
  1 22  1  0  0  0  0
  2 23  1  0  0  0  0
  2 24  1  0  0  0  0
  7 25  1  0  0  0  0
  7 26  1  0  0  0  0
  8 27  1  0  0  0  0
  8 28  1  0  0  0  0
  8 29  1  0  0  0  0
 10 30  1  0  0  0  0
 10 31  1  0  0  0  0
 15 32  1  0  0  0  0
 15 33  1  0  0  0  0
 16 34  1  0  0  0  0
 16 35  1  0  0  0  0
 16 36  1  0  0  0  0
 18 37  1  0  0  0  0
 18 38  1  0  0  0  0
 19 39  1  0  0  0  0
 19 40  1  0  0  0  0
 19 41  1  0  0  0  0
M  END
