 xtb: 6.7.1 (edcfbbe)
          04092505203D

 41 40  0     0  0            999 V2000
    1.7569   -1.7589   -2.8801 C   0  0  0  0  0  0  0  0  0  0  0  0
    2.2487   -0.3532   -2.5916 C   0  0  0  0  0  0  0  0  0  0  0  0
    3.0294   -0.3018   -1.3838 O   0  0  0  0  0  0  0  0  0  0  0  0
    2.4064    0.0305    0.0328 P   0  0  0  0  0  0  0  0  0  0  0  0
    1.1684    1.5637    0.0675 S   0  0  0  0  0  0  0  0  0  0  0  0
    3.7948    0.2453    0.7591 O   0  0  0  0  0  0  0  0  0  0  0  0
    3.9117    0.9512    2.0063 C   0  0  0  0  0  0  0  0  0  0  0  0
    3.1880    0.2529    3.1408 C   0  0  0  0  0  0  0  0  0  0  0  0
    1.6916   -1.8223    0.7917 S   0  0  0  0  0  0  0  0  0  0  0  0
   -0.0567   -1.4485    1.0773 C   0  0  0  0  0  0  0  0  0  0  0  0
   -0.9961   -1.1802   -0.4602 S   0  0  0  0  0  0  0  0  0  0  0  0
   -2.1210    0.5552    0.0613 P   0  0  0  0  0  0  0  0  0  0  0  0
   -1.8886    1.2127    1.8918 S   0  0  0  0  0  0  0  0  0  0  0  0
   -3.6260    0.1645   -0.2984 O   0  0  0  0  0  0  0  0  0  0  0  0
   -4.5126   -0.4695    0.6379 C   0  0  0  0  0  0  0  0  0  0  0  0
   -4.0406   -1.8508    1.0441 C   0  0  0  0  0  0  0  0  0  0  0  0
   -1.8214    1.6406   -1.0429 O   0  0  0  0  0  0  0  0  0  0  0  0
   -2.3907    1.6602   -2.3751 C   0  0  0  0  0  0  0  0  0  0  0  0
   -2.0272    0.4331   -3.1839 C   0  0  0  0  0  0  0  0  0  0  0  0
    1.3082   -1.7824   -3.8682 H   0  0  0  0  0  0  0  0  0  0  0  0
    2.5922   -2.4526   -2.8482 H   0  0  0  0  0  0  0  0  0  0  0  0
    1.0131   -2.0687   -2.1489 H   0  0  0  0  0  0  0  0  0  0  0  0
    1.4170    0.3555   -2.5026 H   0  0  0  0  0  0  0  0  0  0  0  0
    2.9329   -0.0075   -3.3690 H   0  0  0  0  0  0  0  0  0  0  0  0
    4.9878    0.9908    2.1810 H   0  0  0  0  0  0  0  0  0  0  0  0
    3.5212    1.9649    1.8695 H   0  0  0  0  0  0  0  0  0  0  0  0
    2.1103    0.3055    2.9853 H   0  0  0  0  0  0  0  0  0  0  0  0
    3.4882   -0.7905    3.1969 H   0  0  0  0  0  0  0  0  0  0  0  0
    3.4262    0.7484    4.0767 H   0  0  0  0  0  0  0  0  0  0  0  0
   -0.1647   -0.5531    1.6954 H   0  0  0  0  0  0  0  0  0  0  0  0
   -0.4524   -2.3260    1.5825 H   0  0  0  0  0  0  0  0  0  0  0  0
   -4.6037    0.1764    1.5167 H   0  0  0  0  0  0  0  0  0  0  0  0
   -5.4639   -0.5090    0.1051 H   0  0  0  0  0  0  0  0  0  0  0  0
   -3.8319   -2.4565    0.1659 H   0  0  0  0  0  0  0  0  0  0  0  0
   -3.1363   -1.7679    1.6454 H   0  0  0  0  0  0  0  0  0  0  0  0
   -4.8120   -2.3300    1.6383 H   0  0  0  0  0  0  0  0  0  0  0  0
   -3.4739    1.7597   -2.2805 H   0  0  0  0  0  0  0  0  0  0  0  0
   -1.9690    2.5690   -2.8079 H   0  0  0  0  0  0  0  0  0  0  0  0
   -2.4506   -0.4596   -2.7266 H   0  0  0  0  0  0  0  0  0  0  0  0
   -2.4254    0.5411   -4.1880 H   0  0  0  0  0  0  0  0  0  0  0  0
   -0.9473    0.3190   -3.2380 H   0  0  0  0  0  0  0  0  0  0  0  0
  1  2  1  0  0  0  0
  2  3  1  0  0  0  0
  3  4  2  0  0  0  0
  4  5  2  0  0  0  0
  4  6  2  0  0  0  0
  6  7  1  0  0  0  0
  7  8  1  0  0  0  0
  4  9  1  0  0  0  0
  9 10  1  0  0  0  0
 10 11  1  0  0  0  0
 11 12  1  0  0  0  0
 12 13  2  0  0  0  0
 12 14  2  0  0  0  0
 14 15  1  0  0  0  0
 15 16  1  0  0  0  0
 12 17  2  0  0  0  0
 17 18  1  0  0  0  0
 18 19  1  0  0  0  0
  1 20  1  0  0  0  0
  1 21  1  0  0  0  0
  1 22  1  0  0  0  0
  2 23  1  0  0  0  0
  2 24  1  0  0  0  0
  7 25  1  0  0  0  0
  7 26  1  0  0  0  0
  8 27  1  0  0  0  0
  8 28  1  0  0  0  0
  8 29  1  0  0  0  0
 10 30  1  0  0  0  0
 10 31  1  0  0  0  0
 15 32  1  0  0  0  0
 15 33  1  0  0  0  0
 16 34  1  0  0  0  0
 16 35  1  0  0  0  0
 16 36  1  0  0  0  0
 18 37  1  0  0  0  0
 18 38  1  0  0  0  0
 19 39  1  0  0  0  0
 19 40  1  0  0  0  0
 19 41  1  0  0  0  0
M  END
