 xtb: 6.7.1 (edcfbbe)
          04092507313D

 38 37  0     0  0            999 V2000
    3.2608   -4.4433   -0.7977 C   0  0  0  0  0  0  0  0  0  0  0  0
    3.9426   -3.2013   -1.3492 C   0  0  0  0  0  0  0  0  0  0  0  0
    3.5733   -2.0358   -0.5872 O   0  0  0  0  0  0  0  0  0  0  0  0
    2.4780   -1.3850   -0.9266 C   0  0  0  0  0  0  0  0  0  0  0  0
    1.7651   -1.6723   -1.8617 O   0  0  0  0  0  0  0  0  0  0  0  0
    2.2406   -0.2045   -0.0026 C   0  0  0  0  0  0  0  0  0  0  0  0
    0.7902    0.2402   -0.0801 C   0  0  0  0  0  0  0  0  0  0  0  0
    0.4892    0.3247   -1.1333 H   0  0  0  0  0  0  0  0  0  0  0  0
    0.4945    1.5668    0.5838 C   0  0  0  0  0  0  0  0  0  0  0  0
   -0.5598    1.7758    1.1552 O   0  0  0  0  0  0  0  0  0  0  0  0
    1.4488    2.4401    0.4487 O   0  0  0  0  0  0  0  0  0  0  0  0
    1.2305    3.7659    0.9856 C   0  0  0  0  0  0  0  0  0  0  0  0
    2.4775    4.5851    0.7226 C   0  0  0  0  0  0  0  0  0  0  0  0
   -0.3163   -1.0031    0.6864 S   0  0  0  0  0  0  0  0  0  0  0  0
   -2.1633   -0.0677    0.2398 P   0  0  0  0  0  0  0  0  0  0  0  0
   -2.2461    1.1574   -1.2979 S   0  0  0  0  0  0  0  0  0  0  0  0
   -3.0702   -1.3714    0.0106 O   0  0  0  0  0  0  0  0  0  0  0  0
   -2.8721   -2.2085   -1.1302 C   0  0  0  0  0  0  0  0  0  0  0  0
   -2.9016    0.3397    1.5805 O   0  0  0  0  0  0  0  0  0  0  0  0
   -3.2320    1.6734    1.9762 C   0  0  0  0  0  0  0  0  0  0  0  0
    3.5073   -4.5708    0.2525 H   0  0  0  0  0  0  0  0  0  0  0  0
    2.1815   -4.3514   -0.8977 H   0  0  0  0  0  0  0  0  0  0  0  0
    3.5940   -5.3137   -1.3532 H   0  0  0  0  0  0  0  0  0  0  0  0
    3.6645   -3.0386   -2.3943 H   0  0  0  0  0  0  0  0  0  0  0  0
    5.0261   -3.2630   -1.2476 H   0  0  0  0  0  0  0  0  0  0  0  0
    2.8851    0.6166   -0.3238 H   0  0  0  0  0  0  0  0  0  0  0  0
    2.5163   -0.4906    1.0119 H   0  0  0  0  0  0  0  0  0  0  0  0
    0.3499    4.1899    0.4943 H   0  0  0  0  0  0  0  0  0  0  0  0
    1.0205    3.6707    2.0547 H   0  0  0  0  0  0  0  0  0  0  0  0
    3.3335    4.1337    1.2145 H   0  0  0  0  0  0  0  0  0  0  0  0
    2.6706    4.6386   -0.3444 H   0  0  0  0  0  0  0  0  0  0  0  0
    2.3314    5.5882    1.1089 H   0  0  0  0  0  0  0  0  0  0  0  0
   -2.9493   -1.6183   -2.0456 H   0  0  0  0  0  0  0  0  0  0  0  0
   -3.6640   -2.9515   -1.0886 H   0  0  0  0  0  0  0  0  0  0  0  0
   -1.8934   -2.6891   -1.0867 H   0  0  0  0  0  0  0  0  0  0  0  0
   -4.2323    1.6221    2.4007 H   0  0  0  0  0  0  0  0  0  0  0  0
   -3.2177    2.3420    1.1139 H   0  0  0  0  0  0  0  0  0  0  0  0
   -2.5098    2.0138    2.7154 H   0  0  0  0  0  0  0  0  0  0  0  0
  1  2  1  0  0  0  0
  2  3  1  0  0  0  0
  3  4  1  0  0  0  0
  4  5  2  0  0  0  0
  4  6  1  0  0  0  0
  6  7  1  0  0  0  0
  7  8  1  0  0  0  0
  7  9  1  0  0  0  0
  9 10  2  0  0  0  0
  9 11  4  0  0  0  0
 11 12  1  0  0  0  0
 12 13  1  0  0  0  0
  7 14  1  0  0  0  0
 14 15  1  0  0  0  0
 15 16  2  0  0  0  0
 15 17  1  0  0  0  0
 17 18  1  0  0  0  0
 15 19  2  0  0  0  0
 19 20  1  0  0  0  0
  1 21  1  0  0  0  0
  1 22  1  0  0  0  0
  1 23  1  0  0  0  0
  2 24  1  0  0  0  0
  2 25  1  0  0  0  0
  6 26  1  0  0  0  0
  6 27  1  0  0  0  0
 12 28  1  0  0  0  0
 12 29  1  0  0  0  0
 13 30  1  0  0  0  0
 13 31  1  0  0  0  0
 13 32  1  0  0  0  0
 18 33  1  0  0  0  0
 18 34  1  0  0  0  0
 18 35  1  0  0  0  0
 20 36  1  0  0  0  0
 20 37  1  0  0  0  0
 20 38  1  0  0  0  0
M  END
