 xtb: 6.7.1 (edcfbbe)
          04032519423D

 20 20  0     0  0            999 V2000
    0.8592    1.3917   -0.5943 C   0  0  0  0  0  0  0  0  0  0  0  0
    1.5945    0.1668   -0.0259 C   0  0  0  0  0  0  0  0  0  0  0  0
    2.5685    0.0953   -0.5227 H   0  0  0  0  0  0  0  0  0  0  0  0
    0.7731   -1.1096   -0.3172 C   0  0  0  0  0  0  0  0  0  0  0  0
    1.1981   -1.9367    0.2686 H   0  0  0  0  0  0  0  0  0  0  0  0
   -0.6774   -0.9130    0.1468 C   0  0  0  0  0  0  0  0  0  0  0  0
   -1.2811   -1.7601   -0.2113 H   0  0  0  0  0  0  0  0  0  0  0  0
   -1.2495    0.3713   -0.4752 C   0  0  0  0  0  0  0  0  0  0  0  0
   -1.2544    0.2553   -1.5783 H   0  0  0  0  0  0  0  0  0  0  0  0
   -0.4706    1.4910   -0.1244 O   0  0  0  0  0  0  0  0  0  0  0  0
   -2.5246    0.5559    0.0292 O   0  0  0  0  0  0  0  0  0  0  0  0
   -0.7004   -0.8359    1.5487 O   0  0  0  0  0  0  0  0  0  0  0  0
    0.7366   -1.4115   -1.6902 O   0  0  0  0  0  0  0  0  0  0  0  0
    1.8778    0.2931    1.3431 O   0  0  0  0  0  0  0  0  0  0  0  0
    0.8574    1.3273   -1.6907 H   0  0  0  0  0  0  0  0  0  0  0  0
    1.3500    2.3085   -0.2683 H   0  0  0  0  0  0  0  0  0  0  0  0
   -2.8188    1.4603   -0.1606 H   0  0  0  0  0  0  0  0  0  0  0  0
   -1.5845   -0.5364    1.8157 H   0  0  0  0  0  0  0  0  0  0  0  0
    1.5899   -1.7751   -1.9677 H   0  0  0  0  0  0  0  0  0  0  0  0
    1.0459    0.1968    1.8386 H   0  0  0  0  0  0  0  0  0  0  0  0
  1  2  1  0  0  0  0
  2  3  1  0  0  0  0
  2  4  1  0  0  0  0
  4  5  1  0  0  0  0
  4  6  1  0  0  0  0
  6  7  1  0  0  0  0
  6  8  1  0  0  0  0
  8  9  1  0  0  0  0
  1 10  1  0  0  0  0
  8 10  1  0  0  0  0
  8 11  1  0  0  0  0
  6 12  1  0  0  0  0
  4 13  1  0  0  0  0
  2 14  1  0  0  0  0
  1 15  1  0  0  0  0
  1 16  1  0  0  0  0
 11 17  1  0  0  0  0
 12 18  1  0  0  0  0
 13 19  1  0  0  0  0
 14 20  1  0  0  0  0
M  END
