 xtb: 6.7.1 (edcfbbe)
          04092505213D

 41 40  0     0  0            999 V2000
    2.1982    2.4891   -0.4679 C   0  0  0  0  0  0  0  0  0  0  0  0
    2.0745    1.1761   -1.2140 C   0  0  0  0  0  0  0  0  0  0  0  0
    2.7532    0.0990   -0.5524 O   0  0  0  0  0  0  0  0  0  0  0  0
    2.3533   -0.5714    0.8363 P   0  0  0  0  0  0  0  0  0  0  0  0
    2.5767    0.4759    2.4756 S   0  0  0  0  0  0  0  0  0  0  0  0
    3.3299   -1.8054    0.8582 O   0  0  0  0  0  0  0  0  0  0  0  0
    3.7233   -2.6049   -0.2839 C   0  0  0  0  0  0  0  0  0  0  0  0
    2.5542   -3.3235   -0.9234 C   0  0  0  0  0  0  0  0  0  0  0  0
    0.3902   -1.3726    0.5705 S   0  0  0  0  0  0  0  0  0  0  0  0
   -0.5271   -0.3094    1.7073 C   0  0  0  0  0  0  0  0  0  0  0  0
   -1.0083    1.2918    1.0037 S   0  0  0  0  0  0  0  0  0  0  0  0
   -2.2289    0.6055   -0.6029 P   0  0  0  0  0  0  0  0  0  0  0  0
   -1.3824   -0.0372   -2.2560 S   0  0  0  0  0  0  0  0  0  0  0  0
   -3.2472    1.8087   -0.7928 O   0  0  0  0  0  0  0  0  0  0  0  0
   -2.8871    3.2001   -0.8561 C   0  0  0  0  0  0  0  0  0  0  0  0
   -1.7852    3.4763   -1.8584 C   0  0  0  0  0  0  0  0  0  0  0  0
   -3.1825   -0.4473    0.0952 O   0  0  0  0  0  0  0  0  0  0  0  0
   -3.5247   -1.7374   -0.4522 C   0  0  0  0  0  0  0  0  0  0  0  0
   -2.9872   -2.8477    0.4285 C   0  0  0  0  0  0  0  0  0  0  0  0
    1.7933    3.2879   -1.0814 H   0  0  0  0  0  0  0  0  0  0  0  0
    1.6516    2.4529    0.4729 H   0  0  0  0  0  0  0  0  0  0  0  0
    3.2432    2.6978   -0.2524 H   0  0  0  0  0  0  0  0  0  0  0  0
    2.5646    1.2278   -2.1884 H   0  0  0  0  0  0  0  0  0  0  0  0
    1.0260    0.8970   -1.3624 H   0  0  0  0  0  0  0  0  0  0  0  0
    4.2235   -1.9525   -1.0018 H   0  0  0  0  0  0  0  0  0  0  0  0
    4.4403   -3.3075    0.1436 H   0  0  0  0  0  0  0  0  0  0  0  0
    2.0202   -3.9140   -0.1831 H   0  0  0  0  0  0  0  0  0  0  0  0
    1.8617   -2.6106   -1.3693 H   0  0  0  0  0  0  0  0  0  0  0  0
    2.9262   -3.9805   -1.7036 H   0  0  0  0  0  0  0  0  0  0  0  0
    0.1074   -0.0733    2.5644 H   0  0  0  0  0  0  0  0  0  0  0  0
   -1.4195   -0.8521    2.0074 H   0  0  0  0  0  0  0  0  0  0  0  0
   -3.8184    3.6945   -1.1381 H   0  0  0  0  0  0  0  0  0  0  0  0
   -2.5862    3.5198    0.1458 H   0  0  0  0  0  0  0  0  0  0  0  0
   -0.8656    2.9838   -1.5439 H   0  0  0  0  0  0  0  0  0  0  0  0
   -2.0620    3.0997   -2.8404 H   0  0  0  0  0  0  0  0  0  0  0  0
   -1.6117    4.5459   -1.9180 H   0  0  0  0  0  0  0  0  0  0  0  0
   -4.6153   -1.7542   -0.4918 H   0  0  0  0  0  0  0  0  0  0  0  0
   -3.1196   -1.8126   -1.4669 H   0  0  0  0  0  0  0  0  0  0  0  0
   -1.8985   -2.8383    0.4275 H   0  0  0  0  0  0  0  0  0  0  0  0
   -3.3479   -2.7298    1.4468 H   0  0  0  0  0  0  0  0  0  0  0  0
   -3.3298   -3.8008    0.0390 H   0  0  0  0  0  0  0  0  0  0  0  0
  1  2  1  0  0  0  0
  2  3  1  0  0  0  0
  3  4  2  0  0  0  0
  4  5  2  0  0  0  0
  4  6  2  0  0  0  0
  6  7  1  0  0  0  0
  7  8  1  0  0  0  0
  4  9  1  0  0  0  0
  9 10  1  0  0  0  0
 10 11  1  0  0  0  0
 11 12  1  0  0  0  0
 12 13  2  0  0  0  0
 12 14  2  0  0  0  0
 14 15  1  0  0  0  0
 15 16  1  0  0  0  0
 12 17  2  0  0  0  0
 17 18  1  0  0  0  0
 18 19  1  0  0  0  0
  1 20  1  0  0  0  0
  1 21  1  0  0  0  0
  1 22  1  0  0  0  0
  2 23  1  0  0  0  0
  2 24  1  0  0  0  0
  7 25  1  0  0  0  0
  7 26  1  0  0  0  0
  8 27  1  0  0  0  0
  8 28  1  0  0  0  0
  8 29  1  0  0  0  0
 10 30  1  0  0  0  0
 10 31  1  0  0  0  0
 15 32  1  0  0  0  0
 15 33  1  0  0  0  0
 16 34  1  0  0  0  0
 16 35  1  0  0  0  0
 16 36  1  0  0  0  0
 18 37  1  0  0  0  0
 18 38  1  0  0  0  0
 19 39  1  0  0  0  0
 19 40  1  0  0  0  0
 19 41  1  0  0  0  0
M  END
