 xtb: 6.7.1 (edcfbbe)
          04092505203D

 41 40  0     0  0            999 V2000
    5.3887   -1.4171   -1.2711 C   0  0  0  0  0  0  0  0  0  0  0  0
    3.9741   -1.7005   -1.7384 C   0  0  0  0  0  0  0  0  0  0  0  0
    3.0576   -1.7207   -0.6242 O   0  0  0  0  0  0  0  0  0  0  0  0
    2.2222   -0.4408   -0.1805 P   0  0  0  0  0  0  0  0  0  0  0  0
    3.2585    1.1875    0.1758 S   0  0  0  0  0  0  0  0  0  0  0  0
    1.4154   -1.0492    1.0334 O   0  0  0  0  0  0  0  0  0  0  0  0
    1.8050   -0.8740    2.4159 C   0  0  0  0  0  0  0  0  0  0  0  0
    0.9148    0.1487    3.0934 C   0  0  0  0  0  0  0  0  0  0  0  0
    0.7540   -0.3169   -1.6946 S   0  0  0  0  0  0  0  0  0  0  0  0
    0.2972    1.4206   -1.4432 C   0  0  0  0  0  0  0  0  0  0  0  0
   -0.4457    1.7312    0.1801 S   0  0  0  0  0  0  0  0  0  0  0  0
   -2.0761    0.4024   -0.0267 P   0  0  0  0  0  0  0  0  0  0  0  0
   -2.8995    0.3144   -1.8073 S   0  0  0  0  0  0  0  0  0  0  0  0
   -3.0444    0.8480    1.1488 O   0  0  0  0  0  0  0  0  0  0  0  0
   -3.8666    2.0285    1.0416 C   0  0  0  0  0  0  0  0  0  0  0  0
   -4.9322    1.9519    2.1162 C   0  0  0  0  0  0  0  0  0  0  0  0
   -1.4893   -0.9413    0.5633 O   0  0  0  0  0  0  0  0  0  0  0  0
   -1.9302   -2.2372    0.1148 C   0  0  0  0  0  0  0  0  0  0  0  0
   -3.3092   -2.5601    0.6496 C   0  0  0  0  0  0  0  0  0  0  0  0
    5.4498   -0.4233   -0.8332 H   0  0  0  0  0  0  0  0  0  0  0  0
    5.6884   -2.1481   -0.5253 H   0  0  0  0  0  0  0  0  0  0  0  0
    6.0626   -1.4719   -2.1199 H   0  0  0  0  0  0  0  0  0  0  0  0
    3.8921   -2.6960   -2.1787 H   0  0  0  0  0  0  0  0  0  0  0  0
    3.6425   -0.9535   -2.4653 H   0  0  0  0  0  0  0  0  0  0  0  0
    1.6919   -1.8626    2.8634 H   0  0  0  0  0  0  0  0  0  0  0  0
    2.8537   -0.5667    2.4587 H   0  0  0  0  0  0  0  0  0  0  0  0
    1.0973    1.1395    2.6823 H   0  0  0  0  0  0  0  0  0  0  0  0
   -0.1309   -0.1055    2.9363 H   0  0  0  0  0  0  0  0  0  0  0  0
    1.1288    0.1596    4.1572 H   0  0  0  0  0  0  0  0  0  0  0  0
   -0.4172    1.6649   -2.2286 H   0  0  0  0  0  0  0  0  0  0  0  0
    1.1865    2.0476   -1.4997 H   0  0  0  0  0  0  0  0  0  0  0  0
   -3.2261    2.9045    1.1752 H   0  0  0  0  0  0  0  0  0  0  0  0
   -4.3063    2.0562    0.0389 H   0  0  0  0  0  0  0  0  0  0  0  0
   -4.4658    1.8826    3.0946 H   0  0  0  0  0  0  0  0  0  0  0  0
   -5.5462    2.8453    2.0721 H   0  0  0  0  0  0  0  0  0  0  0  0
   -5.5589    1.0783    1.9617 H   0  0  0  0  0  0  0  0  0  0  0  0
   -1.9233   -2.2501   -0.9804 H   0  0  0  0  0  0  0  0  0  0  0  0
   -1.1692   -2.9208    0.4943 H   0  0  0  0  0  0  0  0  0  0  0  0
   -3.5863   -3.5665    0.3522 H   0  0  0  0  0  0  0  0  0  0  0  0
   -3.3202   -2.4839    1.7334 H   0  0  0  0  0  0  0  0  0  0  0  0
   -4.0329   -1.8564    0.2393 H   0  0  0  0  0  0  0  0  0  0  0  0
  1  2  1  0  0  0  0
  2  3  1  0  0  0  0
  3  4  2  0  0  0  0
  4  5  2  0  0  0  0
  4  6  2  0  0  0  0
  6  7  1  0  0  0  0
  7  8  1  0  0  0  0
  4  9  1  0  0  0  0
  9 10  1  0  0  0  0
 10 11  1  0  0  0  0
 11 12  1  0  0  0  0
 12 13  2  0  0  0  0
 12 14  2  0  0  0  0
 14 15  1  0  0  0  0
 15 16  1  0  0  0  0
 12 17  2  0  0  0  0
 17 18  1  0  0  0  0
 18 19  1  0  0  0  0
  1 20  1  0  0  0  0
  1 21  1  0  0  0  0
  1 22  1  0  0  0  0
  2 23  1  0  0  0  0
  2 24  1  0  0  0  0
  7 25  1  0  0  0  0
  7 26  1  0  0  0  0
  8 27  1  0  0  0  0
  8 28  1  0  0  0  0
  8 29  1  0  0  0  0
 10 30  1  0  0  0  0
 10 31  1  0  0  0  0
 15 32  1  0  0  0  0
 15 33  1  0  0  0  0
 16 34  1  0  0  0  0
 16 35  1  0  0  0  0
 16 36  1  0  0  0  0
 18 37  1  0  0  0  0
 18 38  1  0  0  0  0
 19 39  1  0  0  0  0
 19 40  1  0  0  0  0
 19 41  1  0  0  0  0
M  END
