 xtb: 6.7.1 (edcfbbe)
          04092507313D

 38 37  0     0  0            999 V2000
    2.1067   -3.1405   -2.8681 C   0  0  0  0  0  0  0  0  0  0  0  0
    3.0759   -3.0440   -1.7004 C   0  0  0  0  0  0  0  0  0  0  0  0
    2.9024   -1.7925   -1.0079 O   0  0  0  0  0  0  0  0  0  0  0  0
    2.0410   -1.7384   -0.0139 C   0  0  0  0  0  0  0  0  0  0  0  0
    1.4268   -2.6854    0.4245 O   0  0  0  0  0  0  0  0  0  0  0  0
    1.8799   -0.3183    0.4980 C   0  0  0  0  0  0  0  0  0  0  0  0
    1.0762    0.4765   -0.5335 C   0  0  0  0  0  0  0  0  0  0  0  0
    1.6794    0.6343   -1.4326 H   0  0  0  0  0  0  0  0  0  0  0  0
    0.6134    1.8274   -0.0130 C   0  0  0  0  0  0  0  0  0  0  0  0
   -0.5185    2.2349   -0.1779 O   0  0  0  0  0  0  0  0  0  0  0  0
    1.5715    2.4640    0.6009 O   0  0  0  0  0  0  0  0  0  0  0  0
    1.2796    3.7622    1.1619 C   0  0  0  0  0  0  0  0  0  0  0  0
    1.4001    4.8510    0.1089 C   0  0  0  0  0  0  0  0  0  0  0  0
   -0.3941   -0.4250   -1.1292 S   0  0  0  0  0  0  0  0  0  0  0  0
   -1.7594   -0.0695    0.4606 P   0  0  0  0  0  0  0  0  0  0  0  0
   -1.1180    0.4313    2.2422 S   0  0  0  0  0  0  0  0  0  0  0  0
   -2.9222    0.8603   -0.0617 O   0  0  0  0  0  0  0  0  0  0  0  0
   -3.5775    0.6577   -1.3286 C   0  0  0  0  0  0  0  0  0  0  0  0
   -2.5317   -1.4806    0.4681 O   0  0  0  0  0  0  0  0  0  0  0  0
   -1.9373   -2.6460    1.0456 C   0  0  0  0  0  0  0  0  0  0  0  0
    2.2612   -4.0805   -3.3870 H   0  0  0  0  0  0  0  0  0  0  0  0
    1.0813   -3.0967   -2.5075 H   0  0  0  0  0  0  0  0  0  0  0  0
    2.2671   -2.3180   -3.5591 H   0  0  0  0  0  0  0  0  0  0  0  0
    4.1114   -3.0324   -2.0405 H   0  0  0  0  0  0  0  0  0  0  0  0
    2.9155   -3.8607   -0.9912 H   0  0  0  0  0  0  0  0  0  0  0  0
    2.8553    0.1502    0.6229 H   0  0  0  0  0  0  0  0  0  0  0  0
    1.3548   -0.3476    1.4545 H   0  0  0  0  0  0  0  0  0  0  0  0
    0.2727    3.7348    1.5883 H   0  0  0  0  0  0  0  0  0  0  0  0
    2.0214    3.8816    1.9510 H   0  0  0  0  0  0  0  0  0  0  0  0
    1.2456    5.8171    0.5776 H   0  0  0  0  0  0  0  0  0  0  0  0
    2.3872    4.8258   -0.3443 H   0  0  0  0  0  0  0  0  0  0  0  0
    0.6477    4.7109   -0.6640 H   0  0  0  0  0  0  0  0  0  0  0  0
   -4.3031    1.4636   -1.4003 H   0  0  0  0  0  0  0  0  0  0  0  0
   -4.0690   -0.3137   -1.3415 H   0  0  0  0  0  0  0  0  0  0  0  0
   -2.8488    0.7232   -2.1366 H   0  0  0  0  0  0  0  0  0  0  0  0
   -0.9791   -2.8701    0.5742 H   0  0  0  0  0  0  0  0  0  0  0  0
   -2.6463   -3.4512    0.8745 H   0  0  0  0  0  0  0  0  0  0  0  0
   -1.7810   -2.4909    2.1139 H   0  0  0  0  0  0  0  0  0  0  0  0
  1  2  1  0  0  0  0
  2  3  1  0  0  0  0
  3  4  1  0  0  0  0
  4  5  2  0  0  0  0
  4  6  1  0  0  0  0
  6  7  1  0  0  0  0
  7  8  1  0  0  0  0
  7  9  1  0  0  0  0
  9 10  2  0  0  0  0
  9 11  4  0  0  0  0
 11 12  1  0  0  0  0
 12 13  1  0  0  0  0
  7 14  1  0  0  0  0
 14 15  1  0  0  0  0
 15 16  2  0  0  0  0
 15 17  2  0  0  0  0
 17 18  1  0  0  0  0
 15 19  1  0  0  0  0
 19 20  1  0  0  0  0
  1 21  1  0  0  0  0
  1 22  1  0  0  0  0
  1 23  1  0  0  0  0
  2 24  1  0  0  0  0
  2 25  1  0  0  0  0
  6 26  1  0  0  0  0
  6 27  1  0  0  0  0
 12 28  1  0  0  0  0
 12 29  1  0  0  0  0
 13 30  1  0  0  0  0
 13 31  1  0  0  0  0
 13 32  1  0  0  0  0
 18 33  1  0  0  0  0
 18 34  1  0  0  0  0
 18 35  1  0  0  0  0
 20 36  1  0  0  0  0
 20 37  1  0  0  0  0
 20 38  1  0  0  0  0
M  END
