 xtb: 6.7.1 (edcfbbe)
          04092505203D

 41 40  0     0  0            999 V2000
    0.1107   -1.7713    2.8569 C   0  0  0  0  0  0  0  0  0  0  0  0
    1.4226   -1.7021    2.1031 C   0  0  0  0  0  0  0  0  0  0  0  0
    1.5822   -0.3705    1.5673 O   0  0  0  0  0  0  0  0  0  0  0  0
    2.3687   -0.0308    0.2356 P   0  0  0  0  0  0  0  0  0  0  0  0
    3.1839   -1.5873   -0.6432 S   0  0  0  0  0  0  0  0  0  0  0  0
    3.3296    1.0764    0.8364 O   0  0  0  0  0  0  0  0  0  0  0  0
    3.9974    2.1044    0.0810 C   0  0  0  0  0  0  0  0  0  0  0  0
    4.8236    1.5512   -1.0618 C   0  0  0  0  0  0  0  0  0  0  0  0
    1.0409    1.1136   -0.9668 S   0  0  0  0  0  0  0  0  0  0  0  0
    0.3459   -0.2818   -1.8867 C   0  0  0  0  0  0  0  0  0  0  0  0
   -0.5832   -1.4192   -0.8268 S   0  0  0  0  0  0  0  0  0  0  0  0
   -2.0508   -0.0152   -0.2137 P   0  0  0  0  0  0  0  0  0  0  0  0
   -2.6578    1.2239   -1.6117 S   0  0  0  0  0  0  0  0  0  0  0  0
   -1.3910    0.6436    1.0621 O   0  0  0  0  0  0  0  0  0  0  0  0
   -1.6049    2.0210    1.4213 C   0  0  0  0  0  0  0  0  0  0  0  0
   -2.9834    2.2165    2.0158 C   0  0  0  0  0  0  0  0  0  0  0  0
   -3.1376   -0.9415    0.4797 O   0  0  0  0  0  0  0  0  0  0  0  0
   -3.9808   -1.8499   -0.2571 C   0  0  0  0  0  0  0  0  0  0  0  0
   -5.2709   -1.1765   -0.6835 C   0  0  0  0  0  0  0  0  0  0  0  0
    0.0087   -2.7591    3.2943 H   0  0  0  0  0  0  0  0  0  0  0  0
    0.0952   -1.0227    3.6436 H   0  0  0  0  0  0  0  0  0  0  0  0
   -0.7253   -1.5899    2.1859 H   0  0  0  0  0  0  0  0  0  0  0  0
    1.4536   -2.4268    1.2826 H   0  0  0  0  0  0  0  0  0  0  0  0
    2.2693   -1.8857    2.7690 H   0  0  0  0  0  0  0  0  0  0  0  0
    3.2419    2.8033   -0.2894 H   0  0  0  0  0  0  0  0  0  0  0  0
    4.6253    2.5990    0.8243 H   0  0  0  0  0  0  0  0  0  0  0  0
    4.1764    1.0873   -1.8048 H   0  0  0  0  0  0  0  0  0  0  0  0
    5.3769    2.3588   -1.5302 H   0  0  0  0  0  0  0  0  0  0  0  0
    5.5209    0.8009   -0.6965 H   0  0  0  0  0  0  0  0  0  0  0  0
    1.1510   -0.8636   -2.3354 H   0  0  0  0  0  0  0  0  0  0  0  0
   -0.3156    0.1414   -2.6423 H   0  0  0  0  0  0  0  0  0  0  0  0
   -0.8117    2.2344    2.1394 H   0  0  0  0  0  0  0  0  0  0  0  0
   -1.4721    2.6431    0.5296 H   0  0  0  0  0  0  0  0  0  0  0  0
   -3.7390    1.9901    1.2642 H   0  0  0  0  0  0  0  0  0  0  0  0
   -3.1242    1.5542    2.8656 H   0  0  0  0  0  0  0  0  0  0  0  0
   -3.0982    3.2476    2.3345 H   0  0  0  0  0  0  0  0  0  0  0  0
   -3.4303   -2.2316   -1.1220 H   0  0  0  0  0  0  0  0  0  0  0  0
   -4.1719   -2.6674    0.4406 H   0  0  0  0  0  0  0  0  0  0  0  0
   -5.9039   -1.9022   -1.1839 H   0  0  0  0  0  0  0  0  0  0  0  0
   -5.7921   -0.7837    0.1851 H   0  0  0  0  0  0  0  0  0  0  0  0
   -5.0627   -0.3570   -1.3679 H   0  0  0  0  0  0  0  0  0  0  0  0
  1  2  1  0  0  0  0
  2  3  1  0  0  0  0
  3  4  2  0  0  0  0
  4  5  2  0  0  0  0
  4  6  2  0  0  0  0
  6  7  1  0  0  0  0
  7  8  1  0  0  0  0
  4  9  1  0  0  0  0
  9 10  1  0  0  0  0
 10 11  1  0  0  0  0
 11 12  1  0  0  0  0
 12 13  2  0  0  0  0
 12 14  2  0  0  0  0
 14 15  1  0  0  0  0
 15 16  1  0  0  0  0
 12 17  2  0  0  0  0
 17 18  1  0  0  0  0
 18 19  1  0  0  0  0
  1 20  1  0  0  0  0
  1 21  1  0  0  0  0
  1 22  1  0  0  0  0
  2 23  1  0  0  0  0
  2 24  1  0  0  0  0
  7 25  1  0  0  0  0
  7 26  1  0  0  0  0
  8 27  1  0  0  0  0
  8 28  1  0  0  0  0
  8 29  1  0  0  0  0
 10 30  1  0  0  0  0
 10 31  1  0  0  0  0
 15 32  1  0  0  0  0
 15 33  1  0  0  0  0
 16 34  1  0  0  0  0
 16 35  1  0  0  0  0
 16 36  1  0  0  0  0
 18 37  1  0  0  0  0
 18 38  1  0  0  0  0
 19 39  1  0  0  0  0
 19 40  1  0  0  0  0
 19 41  1  0  0  0  0
M  END
