 xtb: 6.7.1 (edcfbbe)
          04092505213D

 41 40  0     0  0            999 V2000
    1.6563   -2.9050    0.9226 C   0  0  0  0  0  0  0  0  0  0  0  0
    1.6486   -1.5553    1.6124 C   0  0  0  0  0  0  0  0  0  0  0  0
    2.7042   -0.6949    1.1564 O   0  0  0  0  0  0  0  0  0  0  0  0
    2.7765    0.0294   -0.2599 P   0  0  0  0  0  0  0  0  0  0  0  0
    3.1115   -1.1024   -1.8214 S   0  0  0  0  0  0  0  0  0  0  0  0
    3.9875    1.0093   -0.0526 O   0  0  0  0  0  0  0  0  0  0  0  0
    3.9966    2.2513    0.6936 C   0  0  0  0  0  0  0  0  0  0  0  0
    3.4686    2.1070    2.1042 C   0  0  0  0  0  0  0  0  0  0  0  0
    1.0320    1.2713   -0.3597 S   0  0  0  0  0  0  0  0  0  0  0  0
    0.2099    0.4692   -1.7518 C   0  0  0  0  0  0  0  0  0  0  0  0
   -0.7242   -1.0036   -1.2594 S   0  0  0  0  0  0  0  0  0  0  0  0
   -2.1971    0.0076   -0.1185 P   0  0  0  0  0  0  0  0  0  0  0  0
   -2.7145    1.7629   -0.8390 S   0  0  0  0  0  0  0  0  0  0  0  0
   -1.5472   -0.0574    1.3233 O   0  0  0  0  0  0  0  0  0  0  0  0
   -2.2994   -0.0152    2.5597 C   0  0  0  0  0  0  0  0  0  0  0  0
   -3.1339    1.2414    2.6839 C   0  0  0  0  0  0  0  0  0  0  0  0
   -3.3842   -1.0376    0.0115 O   0  0  0  0  0  0  0  0  0  0  0  0
   -4.3873   -1.1910   -1.0123 C   0  0  0  0  0  0  0  0  0  0  0  0
   -5.6647   -1.6711   -0.3529 C   0  0  0  0  0  0  0  0  0  0  0  0
    1.4220   -2.7971   -0.1349 H   0  0  0  0  0  0  0  0  0  0  0  0
    2.6360   -3.3668    1.0140 H   0  0  0  0  0  0  0  0  0  0  0  0
    0.9106   -3.5453    1.3828 H   0  0  0  0  0  0  0  0  0  0  0  0
    1.8465   -1.6593    2.6811 H   0  0  0  0  0  0  0  0  0  0  0  0
    0.6894   -1.0489    1.4657 H   0  0  0  0  0  0  0  0  0  0  0  0
    5.0501    2.5353    0.6849 H   0  0  0  0  0  0  0  0  0  0  0  0
    3.4105    2.9836    0.1324 H   0  0  0  0  0  0  0  0  0  0  0  0
    3.6126    3.0452    2.6314 H   0  0  0  0  0  0  0  0  0  0  0  0
    2.4055    1.8735    2.0860 H   0  0  0  0  0  0  0  0  0  0  0  0
    3.9991    1.3148    2.6259 H   0  0  0  0  0  0  0  0  0  0  0  0
    0.9557    0.1372   -2.4753 H   0  0  0  0  0  0  0  0  0  0  0  0
   -0.4735    1.2032   -2.1782 H   0  0  0  0  0  0  0  0  0  0  0  0
   -2.9246   -0.9089    2.6067 H   0  0  0  0  0  0  0  0  0  0  0  0
   -1.5258   -0.0587    3.3280 H   0  0  0  0  0  0  0  0  0  0  0  0
   -2.5082    2.1244    2.5748 H   0  0  0  0  0  0  0  0  0  0  0  0
   -3.8969    1.2644    1.9068 H   0  0  0  0  0  0  0  0  0  0  0  0
   -3.6169    1.2598    3.6559 H   0  0  0  0  0  0  0  0  0  0  0  0
   -4.5319   -0.2255   -1.5091 H   0  0  0  0  0  0  0  0  0  0  0  0
   -4.0153   -1.9172   -1.7389 H   0  0  0  0  0  0  0  0  0  0  0  0
   -6.4202   -1.8273   -1.1159 H   0  0  0  0  0  0  0  0  0  0  0  0
   -5.4843   -2.6057    0.1702 H   0  0  0  0  0  0  0  0  0  0  0  0
   -6.0235   -0.9312    0.3573 H   0  0  0  0  0  0  0  0  0  0  0  0
  1  2  1  0  0  0  0
  2  3  1  0  0  0  0
  3  4  2  0  0  0  0
  4  5  2  0  0  0  0
  4  6  2  0  0  0  0
  6  7  1  0  0  0  0
  7  8  1  0  0  0  0
  4  9  1  0  0  0  0
  9 10  1  0  0  0  0
 10 11  1  0  0  0  0
 11 12  1  0  0  0  0
 12 13  2  0  0  0  0
 12 14  2  0  0  0  0
 14 15  1  0  0  0  0
 15 16  1  0  0  0  0
 12 17  2  0  0  0  0
 17 18  1  0  0  0  0
 18 19  1  0  0  0  0
  1 20  1  0  0  0  0
  1 21  1  0  0  0  0
  1 22  1  0  0  0  0
  2 23  1  0  0  0  0
  2 24  1  0  0  0  0
  7 25  1  0  0  0  0
  7 26  1  0  0  0  0
  8 27  1  0  0  0  0
  8 28  1  0  0  0  0
  8 29  1  0  0  0  0
 10 30  1  0  0  0  0
 10 31  1  0  0  0  0
 15 32  1  0  0  0  0
 15 33  1  0  0  0  0
 16 34  1  0  0  0  0
 16 35  1  0  0  0  0
 16 36  1  0  0  0  0
 18 37  1  0  0  0  0
 18 38  1  0  0  0  0
 19 39  1  0  0  0  0
 19 40  1  0  0  0  0
 19 41  1  0  0  0  0
M  END
