 xtb: 6.7.1 (edcfbbe)
          04092505213D

 41 40  0     0  0            999 V2000
    4.0452   -0.1922   -2.3954 C   0  0  0  0  0  0  0  0  0  0  0  0
    4.5609   -0.0307   -0.9788 C   0  0  0  0  0  0  0  0  0  0  0  0
    3.7063   -0.6659   -0.0147 O   0  0  0  0  0  0  0  0  0  0  0  0
    2.2490   -0.1354    0.3064 P   0  0  0  0  0  0  0  0  0  0  0  0
    2.0598    1.8189    0.2290 S   0  0  0  0  0  0  0  0  0  0  0  0
    2.1631   -0.8669    1.7070 O   0  0  0  0  0  0  0  0  0  0  0  0
    1.0521   -0.7903    2.6159 C   0  0  0  0  0  0  0  0  0  0  0  0
    1.2063    0.3842    3.5633 C   0  0  0  0  0  0  0  0  0  0  0  0
    0.9534   -1.2630   -0.9520 S   0  0  0  0  0  0  0  0  0  0  0  0
    0.1721    0.0709   -1.9196 C   0  0  0  0  0  0  0  0  0  0  0  0
   -1.6347   -0.0624   -2.0491 S   0  0  0  0  0  0  0  0  0  0  0  0
   -2.2221    0.0635   -0.0083 P   0  0  0  0  0  0  0  0  0  0  0  0
   -4.0739    0.6145    0.3154 S   0  0  0  0  0  0  0  0  0  0  0  0
   -1.1286    0.9742    0.7046 O   0  0  0  0  0  0  0  0  0  0  0  0
   -1.4096    2.3569    0.9873 C   0  0  0  0  0  0  0  0  0  0  0  0
   -1.3849    3.2112   -0.2639 C   0  0  0  0  0  0  0  0  0  0  0  0
   -1.7609   -1.3082    0.6550 O   0  0  0  0  0  0  0  0  0  0  0  0
   -2.0624   -2.6150    0.1296 C   0  0  0  0  0  0  0  0  0  0  0  0
   -3.5148   -2.7812   -0.2654 C   0  0  0  0  0  0  0  0  0  0  0  0
    3.1319    0.3869   -2.5262 H   0  0  0  0  0  0  0  0  0  0  0  0
    4.7930    0.1715   -3.0930 H   0  0  0  0  0  0  0  0  0  0  0  0
    3.8371   -1.2388   -2.6035 H   0  0  0  0  0  0  0  0  0  0  0  0
    4.6529    1.0295   -0.7211 H   0  0  0  0  0  0  0  0  0  0  0  0
    5.5222   -0.5276   -0.8418 H   0  0  0  0  0  0  0  0  0  0  0  0
    0.1158   -0.7213    2.0568 H   0  0  0  0  0  0  0  0  0  0  0  0
    1.0806   -1.7388    3.1565 H   0  0  0  0  0  0  0  0  0  0  0  0
    0.3752    0.3940    4.2612 H   0  0  0  0  0  0  0  0  0  0  0  0
    2.1402    0.3014    4.1128 H   0  0  0  0  0  0  0  0  0  0  0  0
    1.2119    1.3191    3.0068 H   0  0  0  0  0  0  0  0  0  0  0  0
    0.5171    0.0053   -2.9487 H   0  0  0  0  0  0  0  0  0  0  0  0
    0.4472    1.0260   -1.4655 H   0  0  0  0  0  0  0  0  0  0  0  0
   -2.3875    2.4173    1.4748 H   0  0  0  0  0  0  0  0  0  0  0  0
   -0.6253    2.6538    1.6847 H   0  0  0  0  0  0  0  0  0  0  0  0
   -0.3988    3.1877   -0.7217 H   0  0  0  0  0  0  0  0  0  0  0  0
   -2.1272    2.8494   -0.9751 H   0  0  0  0  0  0  0  0  0  0  0  0
   -1.6234    4.2358    0.0021 H   0  0  0  0  0  0  0  0  0  0  0  0
   -1.4039   -2.7978   -0.7258 H   0  0  0  0  0  0  0  0  0  0  0  0
   -1.7928   -3.2876    0.9458 H   0  0  0  0  0  0  0  0  0  0  0  0
   -3.6866   -3.8084   -0.5708 H   0  0  0  0  0  0  0  0  0  0  0  0
   -4.1669   -2.5398    0.5711 H   0  0  0  0  0  0  0  0  0  0  0  0
   -3.7594   -2.1183   -1.0954 H   0  0  0  0  0  0  0  0  0  0  0  0
  1  2  1  0  0  0  0
  2  3  1  0  0  0  0
  3  4  2  0  0  0  0
  4  5  2  0  0  0  0
  4  6  2  0  0  0  0
  6  7  1  0  0  0  0
  7  8  1  0  0  0  0
  4  9  1  0  0  0  0
  9 10  1  0  0  0  0
 10 11  1  0  0  0  0
 11 12  1  0  0  0  0
 12 13  2  0  0  0  0
 12 14  2  0  0  0  0
 14 15  1  0  0  0  0
 15 16  1  0  0  0  0
 12 17  2  0  0  0  0
 17 18  1  0  0  0  0
 18 19  1  0  0  0  0
  1 20  1  0  0  0  0
  1 21  1  0  0  0  0
  1 22  1  0  0  0  0
  2 23  1  0  0  0  0
  2 24  1  0  0  0  0
  7 25  1  0  0  0  0
  7 26  1  0  0  0  0
  8 27  1  0  0  0  0
  8 28  1  0  0  0  0
  8 29  1  0  0  0  0
 10 30  1  0  0  0  0
 10 31  1  0  0  0  0
 15 32  1  0  0  0  0
 15 33  1  0  0  0  0
 16 34  1  0  0  0  0
 16 35  1  0  0  0  0
 16 36  1  0  0  0  0
 18 37  1  0  0  0  0
 18 38  1  0  0  0  0
 19 39  1  0  0  0  0
 19 40  1  0  0  0  0
 19 41  1  0  0  0  0
M  END
