 xtb: 6.7.1 (edcfbbe)
          04092505213D

 41 40  0     0  0            999 V2000
    0.8186   -3.1990    0.7738 C   0  0  0  0  0  0  0  0  0  0  0  0
    0.7109   -1.9736    1.6605 C   0  0  0  0  0  0  0  0  0  0  0  0
    1.8955   -1.1587    1.6479 O   0  0  0  0  0  0  0  0  0  0  0  0
    2.4589   -0.3039    0.4407 P   0  0  0  0  0  0  0  0  0  0  0  0
    3.0890   -1.2985   -1.1347 S   0  0  0  0  0  0  0  0  0  0  0  0
    3.5623    0.4148    1.3129 O   0  0  0  0  0  0  0  0  0  0  0  0
    4.2050    1.6618    0.9922 C   0  0  0  0  0  0  0  0  0  0  0  0
    4.8124    1.6806   -0.3958 C   0  0  0  0  0  0  0  0  0  0  0  0
    1.0183    1.2283    0.0354 S   0  0  0  0  0  0  0  0  0  0  0  0
    0.4535    0.6355   -1.5763 C   0  0  0  0  0  0  0  0  0  0  0  0
   -0.7616   -0.7039   -1.4663 S   0  0  0  0  0  0  0  0  0  0  0  0
   -2.2934    0.4593   -0.5873 P   0  0  0  0  0  0  0  0  0  0  0  0
   -2.4822    2.3085   -1.1905 S   0  0  0  0  0  0  0  0  0  0  0  0
   -1.9246    0.2985    0.9648 O   0  0  0  0  0  0  0  0  0  0  0  0
   -2.2044    1.3274    1.9279 C   0  0  0  0  0  0  0  0  0  0  0  0
   -3.6758    1.3473    2.2879 C   0  0  0  0  0  0  0  0  0  0  0  0
   -3.6161   -0.3663   -0.8588 O   0  0  0  0  0  0  0  0  0  0  0  0
   -3.7258   -1.8085   -0.9019 C   0  0  0  0  0  0  0  0  0  0  0  0
   -3.5075   -2.4446    0.4548 C   0  0  0  0  0  0  0  0  0  0  0  0
    1.7358   -3.7391    0.9950 H   0  0  0  0  0  0  0  0  0  0  0  0
   -0.0317   -3.8480    0.9581 H   0  0  0  0  0  0  0  0  0  0  0  0
    0.8257   -2.9177   -0.2774 H   0  0  0  0  0  0  0  0  0  0  0  0
    0.6159   -2.2578    2.7109 H   0  0  0  0  0  0  0  0  0  0  0  0
   -0.1451   -1.3550    1.3739 H   0  0  0  0  0  0  0  0  0  0  0  0
    3.4699    2.4641    1.1038 H   0  0  0  0  0  0  0  0  0  0  0  0
    4.9730    1.7573    1.7621 H   0  0  0  0  0  0  0  0  0  0  0  0
    5.4817    0.8337   -0.5285 H   0  0  0  0  0  0  0  0  0  0  0  0
    4.0310    1.6240   -1.1524 H   0  0  0  0  0  0  0  0  0  0  0  0
    5.3685    2.6028   -0.5317 H   0  0  0  0  0  0  0  0  0  0  0  0
    1.3014    0.2296   -2.1313 H   0  0  0  0  0  0  0  0  0  0  0  0
    0.0041    1.4877   -2.0848 H   0  0  0  0  0  0  0  0  0  0  0  0
   -1.5763    1.0773    2.7841 H   0  0  0  0  0  0  0  0  0  0  0  0
   -1.8932    2.2913    1.5121 H   0  0  0  0  0  0  0  0  0  0  0  0
   -3.9795    0.3867    2.6952 H   0  0  0  0  0  0  0  0  0  0  0  0
   -3.8584    2.1246    3.0230 H   0  0  0  0  0  0  0  0  0  0  0  0
   -4.2654    1.5566    1.3954 H   0  0  0  0  0  0  0  0  0  0  0  0
   -4.7416   -1.9719   -1.2656 H   0  0  0  0  0  0  0  0  0  0  0  0
   -3.0059   -2.1879   -1.6320 H   0  0  0  0  0  0  0  0  0  0  0  0
   -4.2011   -2.0294    1.1812 H   0  0  0  0  0  0  0  0  0  0  0  0
   -3.6739   -3.5141    0.3736 H   0  0  0  0  0  0  0  0  0  0  0  0
   -2.4892   -2.2687    0.7939 H   0  0  0  0  0  0  0  0  0  0  0  0
  1  2  1  0  0  0  0
  2  3  1  0  0  0  0
  3  4  2  0  0  0  0
  4  5  2  0  0  0  0
  4  6  2  0  0  0  0
  6  7  1  0  0  0  0
  7  8  1  0  0  0  0
  4  9  1  0  0  0  0
  9 10  1  0  0  0  0
 10 11  1  0  0  0  0
 11 12  1  0  0  0  0
 12 13  2  0  0  0  0
 12 14  1  0  0  0  0
 14 15  1  0  0  0  0
 15 16  1  0  0  0  0
 12 17  2  0  0  0  0
 17 18  1  0  0  0  0
 18 19  1  0  0  0  0
  1 20  1  0  0  0  0
  1 21  1  0  0  0  0
  1 22  1  0  0  0  0
  2 23  1  0  0  0  0
  2 24  1  0  0  0  0
  7 25  1  0  0  0  0
  7 26  1  0  0  0  0
  8 27  1  0  0  0  0
  8 28  1  0  0  0  0
  8 29  1  0  0  0  0
 10 30  1  0  0  0  0
 10 31  1  0  0  0  0
 15 32  1  0  0  0  0
 15 33  1  0  0  0  0
 16 34  1  0  0  0  0
 16 35  1  0  0  0  0
 16 36  1  0  0  0  0
 18 37  1  0  0  0  0
 18 38  1  0  0  0  0
 19 39  1  0  0  0  0
 19 40  1  0  0  0  0
 19 41  1  0  0  0  0
M  END
