 xtb: 6.7.1 (edcfbbe)
          04092505213D

 41 40  0     0  0            999 V2000
    4.5114    1.2229   -1.8467 C   0  0  0  0  0  0  0  0  0  0  0  0
    4.9557    0.5341   -0.5725 C   0  0  0  0  0  0  0  0  0  0  0  0
    3.9377   -0.3261   -0.0307 O   0  0  0  0  0  0  0  0  0  0  0  0
    2.5752    0.2378    0.5605 P   0  0  0  0  0  0  0  0  0  0  0  0
    2.7486    1.9037    1.5692 S   0  0  0  0  0  0  0  0  0  0  0  0
    2.0788   -0.9319    1.4944 O   0  0  0  0  0  0  0  0  0  0  0  0
    1.5915   -2.2378    1.1082 C   0  0  0  0  0  0  0  0  0  0  0  0
    2.5127   -2.9636    0.1536 C   0  0  0  0  0  0  0  0  0  0  0  0
    1.2482    0.2943   -1.1110 S   0  0  0  0  0  0  0  0  0  0  0  0
    0.1316    1.5521   -0.4481 C   0  0  0  0  0  0  0  0  0  0  0  0
   -0.8954    0.9651    0.9317 S   0  0  0  0  0  0  0  0  0  0  0  0
   -2.2111   -0.3035   -0.1443 P   0  0  0  0  0  0  0  0  0  0  0  0
   -1.5956   -2.0136   -0.8566 S   0  0  0  0  0  0  0  0  0  0  0  0
   -2.7223    0.7482   -1.2360 O   0  0  0  0  0  0  0  0  0  0  0  0
   -3.2683    0.3124   -2.4977 C   0  0  0  0  0  0  0  0  0  0  0  0
   -4.6558   -0.2699   -2.3239 C   0  0  0  0  0  0  0  0  0  0  0  0
   -3.3819   -0.5390    0.8961 O   0  0  0  0  0  0  0  0  0  0  0  0
   -4.1227    0.5475    1.5073 C   0  0  0  0  0  0  0  0  0  0  0  0
   -5.5356    0.0641    1.7634 C   0  0  0  0  0  0  0  0  0  0  0  0
    3.7249    1.9427   -1.6257 H   0  0  0  0  0  0  0  0  0  0  0  0
    5.3557    1.7482   -2.2815 H   0  0  0  0  0  0  0  0  0  0  0  0
    4.1327    0.4950   -2.5598 H   0  0  0  0  0  0  0  0  0  0  0  0
    5.2243    1.2725    0.1894 H   0  0  0  0  0  0  0  0  0  0  0  0
    5.7953   -0.1393   -0.7500 H   0  0  0  0  0  0  0  0  0  0  0  0
    1.5025   -2.7607    2.0616 H   0  0  0  0  0  0  0  0  0  0  0  0
    0.5975   -2.1204    0.6657 H   0  0  0  0  0  0  0  0  0  0  0  0
    3.5150   -3.0283    0.5689 H   0  0  0  0  0  0  0  0  0  0  0  0
    2.1216   -3.9625   -0.0143 H   0  0  0  0  0  0  0  0  0  0  0  0
    2.5543   -2.4405   -0.7999 H   0  0  0  0  0  0  0  0  0  0  0  0
   -0.5051    1.8835   -1.2634 H   0  0  0  0  0  0  0  0  0  0  0  0
    0.7207    2.3742   -0.0386 H   0  0  0  0  0  0  0  0  0  0  0  0
   -3.2792    1.2150   -3.1101 H   0  0  0  0  0  0  0  0  0  0  0  0
   -2.5909   -0.4284   -2.9336 H   0  0  0  0  0  0  0  0  0  0  0  0
   -4.6046   -1.1537   -1.6880 H   0  0  0  0  0  0  0  0  0  0  0  0
   -5.3197    0.4601   -1.8676 H   0  0  0  0  0  0  0  0  0  0  0  0
   -5.0503   -0.5567   -3.2935 H   0  0  0  0  0  0  0  0  0  0  0  0
   -3.6133    0.8068    2.4381 H   0  0  0  0  0  0  0  0  0  0  0  0
   -4.1073    1.4097    0.8360 H   0  0  0  0  0  0  0  0  0  0  0  0
   -5.5150   -0.8200    2.3939 H   0  0  0  0  0  0  0  0  0  0  0  0
   -6.0946    0.8489    2.2629 H   0  0  0  0  0  0  0  0  0  0  0  0
   -6.0260   -0.1875    0.8271 H   0  0  0  0  0  0  0  0  0  0  0  0
  1  2  1  0  0  0  0
  2  3  1  0  0  0  0
  3  4  2  0  0  0  0
  4  5  2  0  0  0  0
  4  6  2  0  0  0  0
  6  7  1  0  0  0  0
  7  8  1  0  0  0  0
  4  9  1  0  0  0  0
  9 10  1  0  0  0  0
 10 11  1  0  0  0  0
 11 12  1  0  0  0  0
 12 13  2  0  0  0  0
 12 14  1  0  0  0  0
 14 15  1  0  0  0  0
 15 16  1  0  0  0  0
 12 17  2  0  0  0  0
 17 18  1  0  0  0  0
 18 19  1  0  0  0  0
  1 20  1  0  0  0  0
  1 21  1  0  0  0  0
  1 22  1  0  0  0  0
  2 23  1  0  0  0  0
  2 24  1  0  0  0  0
  7 25  1  0  0  0  0
  7 26  1  0  0  0  0
  8 27  1  0  0  0  0
  8 28  1  0  0  0  0
  8 29  1  0  0  0  0
 10 30  1  0  0  0  0
 10 31  1  0  0  0  0
 15 32  1  0  0  0  0
 15 33  1  0  0  0  0
 16 34  1  0  0  0  0
 16 35  1  0  0  0  0
 16 36  1  0  0  0  0
 18 37  1  0  0  0  0
 18 38  1  0  0  0  0
 19 39  1  0  0  0  0
 19 40  1  0  0  0  0
 19 41  1  0  0  0  0
M  END
