 xtb: 6.7.1 (edcfbbe)
          04092505213D

 41 40  0     0  0            999 V2000
    5.8545   -0.9396   -0.8580 C   0  0  0  0  0  0  0  0  0  0  0  0
    4.5323   -0.2185   -1.0257 C   0  0  0  0  0  0  0  0  0  0  0  0
    3.6049   -0.7645   -0.0671 O   0  0  0  0  0  0  0  0  0  0  0  0
    2.3063    0.0408    0.3674 P   0  0  0  0  0  0  0  0  0  0  0  0
    2.6426    1.8848    0.9222 S   0  0  0  0  0  0  0  0  0  0  0  0
    1.7205   -0.8304    1.5412 O   0  0  0  0  0  0  0  0  0  0  0  0
    1.1803   -2.1708    1.4386 C   0  0  0  0  0  0  0  0  0  0  0  0
    2.2195   -3.2014    1.0526 C   0  0  0  0  0  0  0  0  0  0  0  0
    0.9947   -0.2166   -1.3036 S   0  0  0  0  0  0  0  0  0  0  0  0
    0.1365    1.3722   -1.1782 C   0  0  0  0  0  0  0  0  0  0  0  0
   -0.9307    1.4992    0.2766 S   0  0  0  0  0  0  0  0  0  0  0  0
   -2.4425    0.1204   -0.3672 P   0  0  0  0  0  0  0  0  0  0  0  0
   -2.5470   -0.2419   -2.2831 S   0  0  0  0  0  0  0  0  0  0  0  0
   -3.7742    0.6774    0.3038 O   0  0  0  0  0  0  0  0  0  0  0  0
   -4.6321    1.6224   -0.3604 C   0  0  0  0  0  0  0  0  0  0  0  0
   -3.9682    2.9710   -0.5478 C   0  0  0  0  0  0  0  0  0  0  0  0
   -2.1824   -1.1848    0.4836 O   0  0  0  0  0  0  0  0  0  0  0  0
   -2.2740   -1.2167    1.9336 C   0  0  0  0  0  0  0  0  0  0  0  0
   -2.4797   -2.6590    2.3484 C   0  0  0  0  0  0  0  0  0  0  0  0
    6.2388   -0.7829    0.1459 H   0  0  0  0  0  0  0  0  0  0  0  0
    5.7222   -2.0048   -1.0229 H   0  0  0  0  0  0  0  0  0  0  0  0
    6.5659   -0.5498   -1.5786 H   0  0  0  0  0  0  0  0  0  0  0  0
    4.1166   -0.3704   -2.0256 H   0  0  0  0  0  0  0  0  0  0  0  0
    4.6363    0.8558   -0.8392 H   0  0  0  0  0  0  0  0  0  0  0  0
    0.7941   -2.3550    2.4429 H   0  0  0  0  0  0  0  0  0  0  0  0
    0.3594   -2.1593    0.7149 H   0  0  0  0  0  0  0  0  0  0  0  0
    2.5344   -3.0593    0.0221 H   0  0  0  0  0  0  0  0  0  0  0  0
    3.0873   -3.1186    1.7015 H   0  0  0  0  0  0  0  0  0  0  0  0
    1.7867   -4.1920    1.1561 H   0  0  0  0  0  0  0  0  0  0  0  0
   -0.4618    1.4629   -2.0842 H   0  0  0  0  0  0  0  0  0  0  0  0
    0.8674    2.1753   -1.0897 H   0  0  0  0  0  0  0  0  0  0  0  0
   -4.9253    1.2005   -1.3266 H   0  0  0  0  0  0  0  0  0  0  0  0
   -5.5009    1.6891    0.2959 H   0  0  0  0  0  0  0  0  0  0  0  0
   -3.1503    2.8876   -1.2620 H   0  0  0  0  0  0  0  0  0  0  0  0
   -4.6966    3.6784   -0.9310 H   0  0  0  0  0  0  0  0  0  0  0  0
   -3.5730    3.3354    0.3973 H   0  0  0  0  0  0  0  0  0  0  0  0
   -1.3457   -0.8016    2.3360 H   0  0  0  0  0  0  0  0  0  0  0  0
   -3.1114   -0.5908    2.2455 H   0  0  0  0  0  0  0  0  0  0  0  0
   -3.4154   -3.0318    1.9416 H   0  0  0  0  0  0  0  0  0  0  0  0
   -1.6683   -3.2789    1.9784 H   0  0  0  0  0  0  0  0  0  0  0  0
   -2.5120   -2.7146    3.4318 H   0  0  0  0  0  0  0  0  0  0  0  0
  1  2  1  0  0  0  0
  2  3  1  0  0  0  0
  3  4  2  0  0  0  0
  4  5  2  0  0  0  0
  4  6  2  0  0  0  0
  6  7  1  0  0  0  0
  7  8  1  0  0  0  0
  4  9  1  0  0  0  0
  9 10  1  0  0  0  0
 10 11  1  0  0  0  0
 11 12  1  0  0  0  0
 12 13  2  0  0  0  0
 12 14  2  0  0  0  0
 14 15  1  0  0  0  0
 15 16  1  0  0  0  0
 12 17  2  0  0  0  0
 17 18  1  0  0  0  0
 18 19  1  0  0  0  0
  1 20  1  0  0  0  0
  1 21  1  0  0  0  0
  1 22  1  0  0  0  0
  2 23  1  0  0  0  0
  2 24  1  0  0  0  0
  7 25  1  0  0  0  0
  7 26  1  0  0  0  0
  8 27  1  0  0  0  0
  8 28  1  0  0  0  0
  8 29  1  0  0  0  0
 10 30  1  0  0  0  0
 10 31  1  0  0  0  0
 15 32  1  0  0  0  0
 15 33  1  0  0  0  0
 16 34  1  0  0  0  0
 16 35  1  0  0  0  0
 16 36  1  0  0  0  0
 18 37  1  0  0  0  0
 18 38  1  0  0  0  0
 19 39  1  0  0  0  0
 19 40  1  0  0  0  0
 19 41  1  0  0  0  0
M  END
