 xtb: 6.7.1 (edcfbbe)
          04092505213D

 41 40  0     0  0            999 V2000
    5.1592   -0.2254   -2.1101 C   0  0  0  0  0  0  0  0  0  0  0  0
    4.9474   -0.1133   -0.6141 C   0  0  0  0  0  0  0  0  0  0  0  0
    3.8993    0.8552   -0.3350 O   0  0  0  0  0  0  0  0  0  0  0  0
    2.4985    0.4618    0.2562 P   0  0  0  0  0  0  0  0  0  0  0  0
    1.3087    2.0021    0.4190 S   0  0  0  0  0  0  0  0  0  0  0  0
    2.9255   -0.2171    1.6319 O   0  0  0  0  0  0  0  0  0  0  0  0
    2.0007   -0.5991    2.6671 C   0  0  0  0  0  0  0  0  0  0  0  0
    1.6493   -2.0710    2.5729 C   0  0  0  0  0  0  0  0  0  0  0  0
    1.8076   -1.1361   -1.0018 S   0  0  0  0  0  0  0  0  0  0  0  0
    0.1165   -0.5786   -1.2151 C   0  0  0  0  0  0  0  0  0  0  0  0
   -0.8864   -0.9185    0.2730 S   0  0  0  0  0  0  0  0  0  0  0  0
   -2.6310    0.0462   -0.4569 P   0  0  0  0  0  0  0  0  0  0  0  0
   -2.9269   -0.1190   -2.3834 S   0  0  0  0  0  0  0  0  0  0  0  0
   -2.5143    1.5719   -0.0794 O   0  0  0  0  0  0  0  0  0  0  0  0
   -2.3898    2.0435    1.2856 C   0  0  0  0  0  0  0  0  0  0  0  0
   -1.9876    3.5016    1.2359 C   0  0  0  0  0  0  0  0  0  0  0  0
   -3.7648   -0.4429    0.5434 O   0  0  0  0  0  0  0  0  0  0  0  0
   -4.0214   -1.8155    0.9032 C   0  0  0  0  0  0  0  0  0  0  0  0
   -4.2251   -2.7091   -0.3016 C   0  0  0  0  0  0  0  0  0  0  0  0
    4.2738   -0.6352   -2.5900 H   0  0  0  0  0  0  0  0  0  0  0  0
    5.3663    0.7547   -2.5309 H   0  0  0  0  0  0  0  0  0  0  0  0
    6.0019   -0.8823   -2.3002 H   0  0  0  0  0  0  0  0  0  0  0  0
    5.8336    0.2799   -0.1139 H   0  0  0  0  0  0  0  0  0  0  0  0
    4.6729   -1.0751   -0.1774 H   0  0  0  0  0  0  0  0  0  0  0  0
    2.5282   -0.3775    3.5968 H   0  0  0  0  0  0  0  0  0  0  0  0
    1.1079    0.0302    2.5975 H   0  0  0  0  0  0  0  0  0  0  0  0
    1.0404   -2.3430    3.4286 H   0  0  0  0  0  0  0  0  0  0  0  0
    1.0861   -2.2751    1.6648 H   0  0  0  0  0  0  0  0  0  0  0  0
    2.5553   -2.6702    2.5715 H   0  0  0  0  0  0  0  0  0  0  0  0
   -0.3059   -1.1214   -2.0590 H   0  0  0  0  0  0  0  0  0  0  0  0
    0.1061    0.4980   -1.3964 H   0  0  0  0  0  0  0  0  0  0  0  0
   -3.3547    1.9053    1.7765 H   0  0  0  0  0  0  0  0  0  0  0  0
   -1.6298    1.4426    1.7936 H   0  0  0  0  0  0  0  0  0  0  0  0
   -1.9533    3.8961    2.2460 H   0  0  0  0  0  0  0  0  0  0  0  0
   -1.0041    3.5999    0.7817 H   0  0  0  0  0  0  0  0  0  0  0  0
   -2.7056    4.0662    0.6484 H   0  0  0  0  0  0  0  0  0  0  0  0
   -3.1836   -2.1684    1.5108 H   0  0  0  0  0  0  0  0  0  0  0  0
   -4.9244   -1.7539    1.5130 H   0  0  0  0  0  0  0  0  0  0  0  0
   -5.0122   -2.3137   -0.9394 H   0  0  0  0  0  0  0  0  0  0  0  0
   -3.3084   -2.7668   -0.8868 H   0  0  0  0  0  0  0  0  0  0  0  0
   -4.4968   -3.7059    0.0304 H   0  0  0  0  0  0  0  0  0  0  0  0
  1  2  1  0  0  0  0
  2  3  1  0  0  0  0
  3  4  2  0  0  0  0
  4  5  2  0  0  0  0
  4  6  2  0  0  0  0
  6  7  1  0  0  0  0
  7  8  1  0  0  0  0
  4  9  1  0  0  0  0
  9 10  1  0  0  0  0
 10 11  1  0  0  0  0
 11 12  1  0  0  0  0
 12 13  2  0  0  0  0
 12 14  2  0  0  0  0
 14 15  1  0  0  0  0
 15 16  1  0  0  0  0
 12 17  2  0  0  0  0
 17 18  1  0  0  0  0
 18 19  1  0  0  0  0
  1 20  1  0  0  0  0
  1 21  1  0  0  0  0
  1 22  1  0  0  0  0
  2 23  1  0  0  0  0
  2 24  1  0  0  0  0
  7 25  1  0  0  0  0
  7 26  1  0  0  0  0
  8 27  1  0  0  0  0
  8 28  1  0  0  0  0
  8 29  1  0  0  0  0
 10 30  1  0  0  0  0
 10 31  1  0  0  0  0
 15 32  1  0  0  0  0
 15 33  1  0  0  0  0
 16 34  1  0  0  0  0
 16 35  1  0  0  0  0
 16 36  1  0  0  0  0
 18 37  1  0  0  0  0
 18 38  1  0  0  0  0
 19 39  1  0  0  0  0
 19 40  1  0  0  0  0
 19 41  1  0  0  0  0
M  END
