 xtb: 6.7.1 (edcfbbe)
          04092505203D

 41 40  0     0  0            999 V2000
    5.4607   -1.5464   -0.1659 C   0  0  0  0  0  0  0  0  0  0  0  0
    4.8234   -0.9694   -1.4125 C   0  0  0  0  0  0  0  0  0  0  0  0
    3.3890   -1.1178   -1.3908 O   0  0  0  0  0  0  0  0  0  0  0  0
    2.4749   -0.2800   -0.4106 P   0  0  0  0  0  0  0  0  0  0  0  0
    3.1470    1.5163    0.0132 S   0  0  0  0  0  0  0  0  0  0  0  0
    2.3235   -1.3202    0.7858 O   0  0  0  0  0  0  0  0  0  0  0  0
    1.4191   -1.2424    1.8997 C   0  0  0  0  0  0  0  0  0  0  0  0
    1.7566   -0.1139    2.8539 C   0  0  0  0  0  0  0  0  0  0  0  0
    0.6618   -0.3840   -1.5105 S   0  0  0  0  0  0  0  0  0  0  0  0
    0.0530    1.2904   -1.1601 C   0  0  0  0  0  0  0  0  0  0  0  0
   -0.6857    1.4500    0.4879 S   0  0  0  0  0  0  0  0  0  0  0  0
   -2.3771    0.2465    0.0992 P   0  0  0  0  0  0  0  0  0  0  0  0
   -3.1972    0.4009   -1.6790 S   0  0  0  0  0  0  0  0  0  0  0  0
   -3.3491    0.5156    1.3250 O   0  0  0  0  0  0  0  0  0  0  0  0
   -4.3497    1.5490    1.3057 C   0  0  0  0  0  0  0  0  0  0  0  0
   -3.7386    2.9353    1.3030 C   0  0  0  0  0  0  0  0  0  0  0  0
   -1.7809   -1.1758    0.4726 O   0  0  0  0  0  0  0  0  0  0  0  0
   -2.3542   -2.4007   -0.0277 C   0  0  0  0  0  0  0  0  0  0  0  0
   -3.7148   -2.6705    0.5791 C   0  0  0  0  0  0  0  0  0  0  0  0
    5.1590   -2.5821   -0.0350 H   0  0  0  0  0  0  0  0  0  0  0  0
    6.5412   -1.4898   -0.2525 H   0  0  0  0  0  0  0  0  0  0  0  0
    5.1428   -0.9748    0.7052 H   0  0  0  0  0  0  0  0  0  0  0  0
    5.1289   -1.5046   -2.3123 H   0  0  0  0  0  0  0  0  0  0  0  0
    5.0625    0.0944   -1.5120 H   0  0  0  0  0  0  0  0  0  0  0  0
    0.3964   -1.1411    1.5244 H   0  0  0  0  0  0  0  0  0  0  0  0
    1.5328   -2.2146    2.3837 H   0  0  0  0  0  0  0  0  0  0  0  0
    2.7947   -0.1836    3.1688 H   0  0  0  0  0  0  0  0  0  0  0  0
    1.5994    0.8522    2.3784 H   0  0  0  0  0  0  0  0  0  0  0  0
    1.1121   -0.1822    3.7244 H   0  0  0  0  0  0  0  0  0  0  0  0
   -0.7002    1.5107   -1.9159 H   0  0  0  0  0  0  0  0  0  0  0  0
    0.8813    1.9980   -1.1999 H   0  0  0  0  0  0  0  0  0  0  0  0
   -4.9782    1.4051    0.4210 H   0  0  0  0  0  0  0  0  0  0  0  0
   -4.9316    1.3663    2.2100 H   0  0  0  0  0  0  0  0  0  0  0  0
   -3.2164    3.1111    0.3633 H   0  0  0  0  0  0  0  0  0  0  0  0
   -4.5250    3.6754    1.4114 H   0  0  0  0  0  0  0  0  0  0  0  0
   -3.0294    3.0380    2.1205 H   0  0  0  0  0  0  0  0  0  0  0  0
   -2.4191   -2.3311   -1.1184 H   0  0  0  0  0  0  0  0  0  0  0  0
   -1.6260   -3.1645    0.2483 H   0  0  0  0  0  0  0  0  0  0  0  0
   -4.4239   -1.9132    0.2469 H   0  0  0  0  0  0  0  0  0  0  0  0
   -4.0653   -3.6464    0.2582 H   0  0  0  0  0  0  0  0  0  0  0  0
   -3.6541   -2.6439    1.6638 H   0  0  0  0  0  0  0  0  0  0  0  0
  1  2  1  0  0  0  0
  2  3  1  0  0  0  0
  3  4  2  0  0  0  0
  4  5  2  0  0  0  0
  4  6  2  0  0  0  0
  6  7  1  0  0  0  0
  7  8  1  0  0  0  0
  4  9  1  0  0  0  0
  9 10  1  0  0  0  0
 10 11  1  0  0  0  0
 11 12  1  0  0  0  0
 12 13  2  0  0  0  0
 12 14  2  0  0  0  0
 14 15  1  0  0  0  0
 15 16  1  0  0  0  0
 12 17  2  0  0  0  0
 17 18  1  0  0  0  0
 18 19  1  0  0  0  0
  1 20  1  0  0  0  0
  1 21  1  0  0  0  0
  1 22  1  0  0  0  0
  2 23  1  0  0  0  0
  2 24  1  0  0  0  0
  7 25  1  0  0  0  0
  7 26  1  0  0  0  0
  8 27  1  0  0  0  0
  8 28  1  0  0  0  0
  8 29  1  0  0  0  0
 10 30  1  0  0  0  0
 10 31  1  0  0  0  0
 15 32  1  0  0  0  0
 15 33  1  0  0  0  0
 16 34  1  0  0  0  0
 16 35  1  0  0  0  0
 16 36  1  0  0  0  0
 18 37  1  0  0  0  0
 18 38  1  0  0  0  0
 19 39  1  0  0  0  0
 19 40  1  0  0  0  0
 19 41  1  0  0  0  0
M  END
