 xtb: 6.7.1 (edcfbbe)
          04092505213D

 41 40  0     0  0            999 V2000
    0.9731    1.7913    2.3759 C   0  0  0  0  0  0  0  0  0  0  0  0
    1.7118    0.5554    2.8496 C   0  0  0  0  0  0  0  0  0  0  0  0
    2.5530    0.0071    1.8195 O   0  0  0  0  0  0  0  0  0  0  0  0
    2.0014   -0.9656    0.6900 P   0  0  0  0  0  0  0  0  0  0  0  0
    0.7772   -2.3626    1.3000 S   0  0  0  0  0  0  0  0  0  0  0  0
    3.3140   -1.6068    0.0927 O   0  0  0  0  0  0  0  0  0  0  0  0
    4.4282   -0.8483   -0.4383 C   0  0  0  0  0  0  0  0  0  0  0  0
    5.4607   -0.5666    0.6339 C   0  0  0  0  0  0  0  0  0  0  0  0
    1.3109    0.3516   -0.8385 S   0  0  0  0  0  0  0  0  0  0  0  0
    0.3606   -0.8728   -1.7883 C   0  0  0  0  0  0  0  0  0  0  0  0
   -1.1525   -0.1857   -2.5163 S   0  0  0  0  0  0  0  0  0  0  0  0
   -2.2349    0.4042   -0.7963 P   0  0  0  0  0  0  0  0  0  0  0  0
   -4.1484    0.7117   -1.0739 S   0  0  0  0  0  0  0  0  0  0  0  0
   -1.4622    1.6418   -0.1494 O   0  0  0  0  0  0  0  0  0  0  0  0
   -1.7184    2.9986   -0.5448 C   0  0  0  0  0  0  0  0  0  0  0  0
   -1.1390    3.3033   -1.9118 C   0  0  0  0  0  0  0  0  0  0  0  0
   -1.8235   -0.7659    0.1892 O   0  0  0  0  0  0  0  0  0  0  0  0
   -2.6565   -1.1521    1.3011 C   0  0  0  0  0  0  0  0  0  0  0  0
   -2.6798   -0.0922    2.3809 C   0  0  0  0  0  0  0  0  0  0  0  0
    0.4548    2.2405    3.2177 H   0  0  0  0  0  0  0  0  0  0  0  0
    1.6759    2.5097    1.9623 H   0  0  0  0  0  0  0  0  0  0  0  0
    0.2453    1.5338    1.6093 H   0  0  0  0  0  0  0  0  0  0  0  0
    1.0161   -0.2228    3.1814 H   0  0  0  0  0  0  0  0  0  0  0  0
    2.4041    0.7931    3.6593 H   0  0  0  0  0  0  0  0  0  0  0  0
    4.8362   -1.4885   -1.2225 H   0  0  0  0  0  0  0  0  0  0  0  0
    4.0470    0.0794   -0.8747 H   0  0  0  0  0  0  0  0  0  0  0  0
    5.7823   -1.4966    1.0949 H   0  0  0  0  0  0  0  0  0  0  0  0
    6.3171   -0.0777    0.1797 H   0  0  0  0  0  0  0  0  0  0  0  0
    5.0444    0.0797    1.4014 H   0  0  0  0  0  0  0  0  0  0  0  0
    0.1061   -1.7028   -1.1265 H   0  0  0  0  0  0  0  0  0  0  0  0
    0.9490   -1.2066   -2.6399 H   0  0  0  0  0  0  0  0  0  0  0  0
   -2.8011    3.1627   -0.5362 H   0  0  0  0  0  0  0  0  0  0  0  0
   -1.2440    3.5959    0.2351 H   0  0  0  0  0  0  0  0  0  0  0  0
   -1.6675    2.7356   -2.6770 H   0  0  0  0  0  0  0  0  0  0  0  0
   -1.2482    4.3626   -2.1206 H   0  0  0  0  0  0  0  0  0  0  0  0
   -0.0855    3.0344   -1.9405 H   0  0  0  0  0  0  0  0  0  0  0  0
   -3.6656   -1.3454    0.9246 H   0  0  0  0  0  0  0  0  0  0  0  0
   -2.2012   -2.0802    1.6521 H   0  0  0  0  0  0  0  0  0  0  0  0
   -3.1315    0.8200    1.9931 H   0  0  0  0  0  0  0  0  0  0  0  0
   -3.2677   -0.4511    3.2196 H   0  0  0  0  0  0  0  0  0  0  0  0
   -1.6688    0.1239    2.7158 H   0  0  0  0  0  0  0  0  0  0  0  0
  1  2  1  0  0  0  0
  2  3  1  0  0  0  0
  3  4  2  0  0  0  0
  4  5  2  0  0  0  0
  4  6  2  0  0  0  0
  6  7  1  0  0  0  0
  7  8  1  0  0  0  0
  4  9  1  0  0  0  0
  9 10  1  0  0  0  0
 10 11  1  0  0  0  0
 11 12  1  0  0  0  0
 12 13  2  0  0  0  0
 12 14  2  0  0  0  0
 14 15  1  0  0  0  0
 15 16  1  0  0  0  0
 12 17  2  0  0  0  0
 17 18  1  0  0  0  0
 18 19  1  0  0  0  0
  1 20  1  0  0  0  0
  1 21  1  0  0  0  0
  1 22  1  0  0  0  0
  2 23  1  0  0  0  0
  2 24  1  0  0  0  0
  7 25  1  0  0  0  0
  7 26  1  0  0  0  0
  8 27  1  0  0  0  0
  8 28  1  0  0  0  0
  8 29  1  0  0  0  0
 10 30  1  0  0  0  0
 10 31  1  0  0  0  0
 15 32  1  0  0  0  0
 15 33  1  0  0  0  0
 16 34  1  0  0  0  0
 16 35  1  0  0  0  0
 16 36  1  0  0  0  0
 18 37  1  0  0  0  0
 18 38  1  0  0  0  0
 19 39  1  0  0  0  0
 19 40  1  0  0  0  0
 19 41  1  0  0  0  0
M  END
