 xtb: 6.7.1 (edcfbbe)
          04092505203D

 41 40  0     0  0            999 V2000
    3.9021   -1.6816   -2.0546 C   0  0  0  0  0  0  0  0  0  0  0  0
    4.1791   -0.1996   -1.8963 C   0  0  0  0  0  0  0  0  0  0  0  0
    3.6591    0.3285   -0.6679 O   0  0  0  0  0  0  0  0  0  0  0  0
    2.1013    0.4736   -0.3538 P   0  0  0  0  0  0  0  0  0  0  0  0
    1.0684    1.0476   -1.9163 S   0  0  0  0  0  0  0  0  0  0  0  0
    2.1347    1.5468    0.7919 O   0  0  0  0  0  0  0  0  0  0  0  0
    2.4068    1.3139    2.1934 C   0  0  0  0  0  0  0  0  0  0  0  0
    3.7186    0.5961    2.4210 C   0  0  0  0  0  0  0  0  0  0  0  0
    1.5369   -1.3858    0.5248 S   0  0  0  0  0  0  0  0  0  0  0  0
    0.3015   -1.9564   -0.6796 C   0  0  0  0  0  0  0  0  0  0  0  0
   -1.3610   -2.1884    0.0144 S   0  0  0  0  0  0  0  0  0  0  0  0
   -2.0317   -0.2029    0.1656 P   0  0  0  0  0  0  0  0  0  0  0  0
   -0.9833    1.0810    1.2267 S   0  0  0  0  0  0  0  0  0  0  0  0
   -3.5095   -0.4071    0.7070 O   0  0  0  0  0  0  0  0  0  0  0  0
   -3.7953   -0.6179    2.1041 C   0  0  0  0  0  0  0  0  0  0  0  0
   -5.2444   -0.2463    2.3468 C   0  0  0  0  0  0  0  0  0  0  0  0
   -2.2651    0.1450   -1.3570 O   0  0  0  0  0  0  0  0  0  0  0  0
   -2.4480    1.4940   -1.8297 C   0  0  0  0  0  0  0  0  0  0  0  0
   -3.7347    2.1006   -1.3142 C   0  0  0  0  0  0  0  0  0  0  0  0
    2.8384   -1.8466   -2.2174 H   0  0  0  0  0  0  0  0  0  0  0  0
    4.4493   -2.0566   -2.9136 H   0  0  0  0  0  0  0  0  0  0  0  0
    4.2138   -2.2219   -1.1644 H   0  0  0  0  0  0  0  0  0  0  0  0
    3.7449    0.3645   -2.7283 H   0  0  0  0  0  0  0  0  0  0  0  0
    5.2491    0.0034   -1.8319 H   0  0  0  0  0  0  0  0  0  0  0  0
    2.4136    2.3212    2.6122 H   0  0  0  0  0  0  0  0  0  0  0  0
    1.5650    0.7551    2.6118 H   0  0  0  0  0  0  0  0  0  0  0  0
    3.9039    0.5296    3.4885 H   0  0  0  0  0  0  0  0  0  0  0  0
    3.6735   -0.4098    2.0062 H   0  0  0  0  0  0  0  0  0  0  0  0
    4.5306    1.1392    1.9445 H   0  0  0  0  0  0  0  0  0  0  0  0
    0.6032   -2.9421   -1.0240 H   0  0  0  0  0  0  0  0  0  0  0  0
    0.2514   -1.2368   -1.5020 H   0  0  0  0  0  0  0  0  0  0  0  0
   -3.6099   -1.6706    2.3321 H   0  0  0  0  0  0  0  0  0  0  0  0
   -3.1153    0.0036    2.6969 H   0  0  0  0  0  0  0  0  0  0  0  0
   -5.8899   -0.8438    1.7099 H   0  0  0  0  0  0  0  0  0  0  0  0
   -5.4897   -0.4342    3.3868 H   0  0  0  0  0  0  0  0  0  0  0  0
   -5.4059    0.8049    2.1249 H   0  0  0  0  0  0  0  0  0  0  0  0
   -1.5814    2.0902   -1.5252 H   0  0  0  0  0  0  0  0  0  0  0  0
   -2.4463    1.3890   -2.9154 H   0  0  0  0  0  0  0  0  0  0  0  0
   -3.8832    3.0720   -1.7752 H   0  0  0  0  0  0  0  0  0  0  0  0
   -4.5742    1.4518   -1.5494 H   0  0  0  0  0  0  0  0  0  0  0  0
   -3.6758    2.2260   -0.2335 H   0  0  0  0  0  0  0  0  0  0  0  0
  1  2  1  0  0  0  0
  2  3  1  0  0  0  0
  3  4  2  0  0  0  0
  4  5  2  0  0  0  0
  4  6  2  0  0  0  0
  6  7  1  0  0  0  0
  7  8  1  0  0  0  0
  4  9  1  0  0  0  0
  9 10  1  0  0  0  0
 10 11  1  0  0  0  0
 11 12  1  0  0  0  0
 12 13  2  0  0  0  0
 12 14  2  0  0  0  0
 14 15  1  0  0  0  0
 15 16  1  0  0  0  0
 12 17  2  0  0  0  0
 17 18  1  0  0  0  0
 18 19  1  0  0  0  0
  1 20  1  0  0  0  0
  1 21  1  0  0  0  0
  1 22  1  0  0  0  0
  2 23  1  0  0  0  0
  2 24  1  0  0  0  0
  7 25  1  0  0  0  0
  7 26  1  0  0  0  0
  8 27  1  0  0  0  0
  8 28  1  0  0  0  0
  8 29  1  0  0  0  0
 10 30  1  0  0  0  0
 10 31  1  0  0  0  0
 15 32  1  0  0  0  0
 15 33  1  0  0  0  0
 16 34  1  0  0  0  0
 16 35  1  0  0  0  0
 16 36  1  0  0  0  0
 18 37  1  0  0  0  0
 18 38  1  0  0  0  0
 19 39  1  0  0  0  0
 19 40  1  0  0  0  0
 19 41  1  0  0  0  0
M  END
