 xtb: 6.7.1 (edcfbbe)
          04092505213D

 41 40  0     0  0            999 V2000
    2.9960   -2.9874   -0.5324 C   0  0  0  0  0  0  0  0  0  0  0  0
    4.1791   -2.0635   -0.3417 C   0  0  0  0  0  0  0  0  0  0  0  0
    3.9076   -0.7114   -0.7928 O   0  0  0  0  0  0  0  0  0  0  0  0
    2.7719    0.2244   -0.2417 P   0  0  0  0  0  0  0  0  0  0  0  0
    3.1398    2.1170   -0.5913 S   0  0  0  0  0  0  0  0  0  0  0  0
    2.7346   -0.1819    1.2968 O   0  0  0  0  0  0  0  0  0  0  0  0
    1.9455    0.5171    2.2789 C   0  0  0  0  0  0  0  0  0  0  0  0
    0.7729   -0.3390    2.7156 C   0  0  0  0  0  0  0  0  0  0  0  0
    0.9621   -0.4901   -1.1427 S   0  0  0  0  0  0  0  0  0  0  0  0
    0.1372    1.0902   -1.4183 C   0  0  0  0  0  0  0  0  0  0  0  0
   -0.8307    1.6528    0.0054 S   0  0  0  0  0  0  0  0  0  0  0  0
   -2.4329    0.3021   -0.3072 P   0  0  0  0  0  0  0  0  0  0  0  0
   -3.0291    0.0429   -2.1506 S   0  0  0  0  0  0  0  0  0  0  0  0
   -3.5983    0.8699    0.5985 O   0  0  0  0  0  0  0  0  0  0  0  0
   -3.4388    1.4072    1.9339 C   0  0  0  0  0  0  0  0  0  0  0  0
   -3.3332    0.3114    2.9746 C   0  0  0  0  0  0  0  0  0  0  0  0
   -1.8406   -1.0076    0.3942 O   0  0  0  0  0  0  0  0  0  0  0  0
   -2.1513   -2.3363   -0.0603 C   0  0  0  0  0  0  0  0  0  0  0  0
   -3.5407   -2.7485    0.3807 C   0  0  0  0  0  0  0  0  0  0  0  0
    2.1661   -2.6695    0.0957 H   0  0  0  0  0  0  0  0  0  0  0  0
    2.6700   -2.9807   -1.5695 H   0  0  0  0  0  0  0  0  0  0  0  0
    3.2847   -3.9963   -0.2542 H   0  0  0  0  0  0  0  0  0  0  0  0
    5.0287   -2.3624   -0.9572 H   0  0  0  0  0  0  0  0  0  0  0  0
    4.4759   -2.0168    0.7075 H   0  0  0  0  0  0  0  0  0  0  0  0
    2.6269    0.7063    3.1109 H   0  0  0  0  0  0  0  0  0  0  0  0
    1.6126    1.4746    1.8647 H   0  0  0  0  0  0  0  0  0  0  0  0
    0.1041   -0.5259    1.8787 H   0  0  0  0  0  0  0  0  0  0  0  0
    1.1297   -1.2898    3.1012 H   0  0  0  0  0  0  0  0  0  0  0  0
    0.2283    0.1839    3.4953 H   0  0  0  0  0  0  0  0  0  0  0  0
   -0.5293    0.9628   -2.2721 H   0  0  0  0  0  0  0  0  0  0  0  0
    0.8901    1.8573   -1.6092 H   0  0  0  0  0  0  0  0  0  0  0  0
   -2.5567    2.0531    1.9463 H   0  0  0  0  0  0  0  0  0  0  0  0
   -4.3372    2.0102    2.0761 H   0  0  0  0  0  0  0  0  0  0  0  0
   -3.2908    0.7652    3.9598 H   0  0  0  0  0  0  0  0  0  0  0  0
   -4.2017   -0.3396    2.9197 H   0  0  0  0  0  0  0  0  0  0  0  0
   -2.4347   -0.2782    2.8145 H   0  0  0  0  0  0  0  0  0  0  0  0
   -2.0656   -2.3633   -1.1509 H   0  0  0  0  0  0  0  0  0  0  0  0
   -1.3773   -2.9626    0.3847 H   0  0  0  0  0  0  0  0  0  0  0  0
   -4.2756   -2.0681   -0.0496 H   0  0  0  0  0  0  0  0  0  0  0  0
   -3.7466   -3.7558    0.0331 H   0  0  0  0  0  0  0  0  0  0  0  0
   -3.6208   -2.7167    1.4638 H   0  0  0  0  0  0  0  0  0  0  0  0
  1  2  1  0  0  0  0
  2  3  1  0  0  0  0
  3  4  2  0  0  0  0
  4  5  2  0  0  0  0
  4  6  2  0  0  0  0
  6  7  1  0  0  0  0
  7  8  1  0  0  0  0
  4  9  1  0  0  0  0
  9 10  1  0  0  0  0
 10 11  1  0  0  0  0
 11 12  1  0  0  0  0
 12 13  2  0  0  0  0
 12 14  2  0  0  0  0
 14 15  1  0  0  0  0
 15 16  1  0  0  0  0
 12 17  1  0  0  0  0
 17 18  1  0  0  0  0
 18 19  1  0  0  0  0
  1 20  1  0  0  0  0
  1 21  1  0  0  0  0
  1 22  1  0  0  0  0
  2 23  1  0  0  0  0
  2 24  1  0  0  0  0
  7 25  1  0  0  0  0
  7 26  1  0  0  0  0
  8 27  1  0  0  0  0
  8 28  1  0  0  0  0
  8 29  1  0  0  0  0
 10 30  1  0  0  0  0
 10 31  1  0  0  0  0
 15 32  1  0  0  0  0
 15 33  1  0  0  0  0
 16 34  1  0  0  0  0
 16 35  1  0  0  0  0
 16 36  1  0  0  0  0
 18 37  1  0  0  0  0
 18 38  1  0  0  0  0
 19 39  1  0  0  0  0
 19 40  1  0  0  0  0
 19 41  1  0  0  0  0
M  END
