 xtb: 6.7.1 (edcfbbe)
          04092507313D

 38 37  0     0  0            999 V2000
    3.2164   -1.2427    1.8866 C   0  0  0  0  0  0  0  0  0  0  0  0
    2.9116   -1.9742    0.5915 C   0  0  0  0  0  0  0  0  0  0  0  0
    2.6366   -1.0178   -0.4501 O   0  0  0  0  0  0  0  0  0  0  0  0
    1.4985   -1.0616   -1.1043 C   0  0  0  0  0  0  0  0  0  0  0  0
    0.6102   -1.8694   -0.9123 O   0  0  0  0  0  0  0  0  0  0  0  0
    1.4086    0.0377   -2.1434 C   0  0  0  0  0  0  0  0  0  0  0  0
    0.2328    0.9671   -1.8300 C   0  0  0  0  0  0  0  0  0  0  0  0
    0.1459    1.7226   -2.6159 H   0  0  0  0  0  0  0  0  0  0  0  0
    0.3884    1.6679   -0.4958 C   0  0  0  0  0  0  0  0  0  0  0  0
   -0.5324    1.7724    0.2961 O   0  0  0  0  0  0  0  0  0  0  0  0
    1.5901    2.1191   -0.2972 O   0  0  0  0  0  0  0  0  0  0  0  0
    1.8862    2.7380    0.9755 C   0  0  0  0  0  0  0  0  0  0  0  0
    3.3862    2.9348    1.0498 C   0  0  0  0  0  0  0  0  0  0  0  0
   -1.3811    0.1074   -1.8304 S   0  0  0  0  0  0  0  0  0  0  0  0
   -1.7481   -0.3929    0.2067 P   0  0  0  0  0  0  0  0  0  0  0  0
   -0.4849   -0.7464    1.6775 S   0  0  0  0  0  0  0  0  0  0  0  0
   -2.9843    0.5285    0.6019 O   0  0  0  0  0  0  0  0  0  0  0  0
   -2.9965    1.4944    1.6518 C   0  0  0  0  0  0  0  0  0  0  0  0
   -2.6769   -1.6736   -0.0655 O   0  0  0  0  0  0  0  0  0  0  0  0
   -2.1720   -2.9558   -0.4324 C   0  0  0  0  0  0  0  0  0  0  0  0
    3.5004   -1.9655    2.6440 H   0  0  0  0  0  0  0  0  0  0  0  0
    4.0299   -0.5393    1.7373 H   0  0  0  0  0  0  0  0  0  0  0  0
    2.3313   -0.7105    2.2289 H   0  0  0  0  0  0  0  0  0  0  0  0
    2.0439   -2.6294    0.7057 H   0  0  0  0  0  0  0  0  0  0  0  0
    3.7743   -2.5504    0.2494 H   0  0  0  0  0  0  0  0  0  0  0  0
    1.2339   -0.4228   -3.1159 H   0  0  0  0  0  0  0  0  0  0  0  0
    2.3372    0.6068   -2.1469 H   0  0  0  0  0  0  0  0  0  0  0  0
    1.3449    3.6868    1.0277 H   0  0  0  0  0  0  0  0  0  0  0  0
    1.5152    2.0810    1.7685 H   0  0  0  0  0  0  0  0  0  0  0  0
    3.8901    1.9781    0.9521 H   0  0  0  0  0  0  0  0  0  0  0  0
    3.7167    3.5912    0.2510 H   0  0  0  0  0  0  0  0  0  0  0  0
    3.6405    3.3764    2.0073 H   0  0  0  0  0  0  0  0  0  0  0  0
   -2.7959    2.4801    1.2355 H   0  0  0  0  0  0  0  0  0  0  0  0
   -2.2397    1.2523    2.4005 H   0  0  0  0  0  0  0  0  0  0  0  0
   -3.9916    1.4506    2.0889 H   0  0  0  0  0  0  0  0  0  0  0  0
   -1.7837   -2.9342   -1.4505 H   0  0  0  0  0  0  0  0  0  0  0  0
   -3.0179   -3.6342   -0.3541 H   0  0  0  0  0  0  0  0  0  0  0  0
   -1.3736   -3.2553    0.2482 H   0  0  0  0  0  0  0  0  0  0  0  0
  1  2  1  0  0  0  0
  2  3  1  0  0  0  0
  3  4  4  0  0  0  0
  4  5  2  0  0  0  0
  4  6  1  0  0  0  0
  6  7  1  0  0  0  0
  7  8  1  0  0  0  0
  7  9  1  0  0  0  0
  9 10  2  0  0  0  0
  9 11  4  0  0  0  0
 11 12  1  0  0  0  0
 12 13  1  0  0  0  0
  7 14  1  0  0  0  0
 14 15  1  0  0  0  0
 15 16  2  0  0  0  0
 15 17  1  0  0  0  0
 17 18  1  0  0  0  0
 15 19  1  0  0  0  0
 19 20  1  0  0  0  0
  1 21  1  0  0  0  0
  1 22  1  0  0  0  0
  1 23  1  0  0  0  0
  2 24  1  0  0  0  0
  2 25  1  0  0  0  0
  6 26  1  0  0  0  0
  6 27  1  0  0  0  0
 12 28  1  0  0  0  0
 12 29  1  0  0  0  0
 13 30  1  0  0  0  0
 13 31  1  0  0  0  0
 13 32  1  0  0  0  0
 18 33  1  0  0  0  0
 18 34  1  0  0  0  0
 18 35  1  0  0  0  0
 20 36  1  0  0  0  0
 20 37  1  0  0  0  0
 20 38  1  0  0  0  0
M  END
