 xtb: 6.7.1 (edcfbbe)
          04092505213D

 41 40  0     0  0            999 V2000
    2.7378   -2.7887    1.4000 C   0  0  0  0  0  0  0  0  0  0  0  0
    1.5076   -2.2499    0.6987 C   0  0  0  0  0  0  0  0  0  0  0  0
    1.4514   -0.8163    0.8001 O   0  0  0  0  0  0  0  0  0  0  0  0
    2.2669    0.1617   -0.1708 P   0  0  0  0  0  0  0  0  0  0  0  0
    3.1444   -0.6603   -1.7059 S   0  0  0  0  0  0  0  0  0  0  0  0
    3.2936    0.9140    0.7652 O   0  0  0  0  0  0  0  0  0  0  0  0
    2.8974    1.6019    1.9800 C   0  0  0  0  0  0  0  0  0  0  0  0
    4.1343    2.2607    2.5533 C   0  0  0  0  0  0  0  0  0  0  0  0
    0.8013    1.6555   -0.5612 S   0  0  0  0  0  0  0  0  0  0  0  0
    0.1356    0.8992   -2.0649 C   0  0  0  0  0  0  0  0  0  0  0  0
   -0.5417   -0.7580   -1.7801 S   0  0  0  0  0  0  0  0  0  0  0  0
   -2.0947   -0.1800   -0.4637 P   0  0  0  0  0  0  0  0  0  0  0  0
   -2.9120    1.5710   -0.8099 S   0  0  0  0  0  0  0  0  0  0  0  0
   -1.5565   -0.3727    1.0225 O   0  0  0  0  0  0  0  0  0  0  0  0
   -1.3657    0.6896    1.9727 C   0  0  0  0  0  0  0  0  0  0  0  0
   -2.4245    0.6039    3.0542 C   0  0  0  0  0  0  0  0  0  0  0  0
   -2.9453   -1.4967   -0.6884 O   0  0  0  0  0  0  0  0  0  0  0  0
   -4.0061   -1.9185    0.1967 C   0  0  0  0  0  0  0  0  0  0  0  0
   -5.2780   -1.1242   -0.0251 C   0  0  0  0  0  0  0  0  0  0  0  0
    3.6325   -2.3939    0.9196 H   0  0  0  0  0  0  0  0  0  0  0  0
    2.7391   -2.4953    2.4463 H   0  0  0  0  0  0  0  0  0  0  0  0
    2.7474   -3.8716    1.3292 H   0  0  0  0  0  0  0  0  0  0  0  0
    0.5830   -2.5920    1.1672 H   0  0  0  0  0  0  0  0  0  0  0  0
    1.5081   -2.5317   -0.3590 H   0  0  0  0  0  0  0  0  0  0  0  0
    2.1318    2.3392    1.7222 H   0  0  0  0  0  0  0  0  0  0  0  0
    2.4766    0.8661    2.6691 H   0  0  0  0  0  0  0  0  0  0  0  0
    3.8686    2.7842    3.4659 H   0  0  0  0  0  0  0  0  0  0  0  0
    4.8890    1.5110    2.7727 H   0  0  0  0  0  0  0  0  0  0  0  0
    4.5436    2.9683    1.8383 H   0  0  0  0  0  0  0  0  0  0  0  0
    0.9300    0.7878   -2.8018 H   0  0  0  0  0  0  0  0  0  0  0  0
   -0.6505    1.5648   -2.4211 H   0  0  0  0  0  0  0  0  0  0  0  0
   -0.3613    0.5467    2.3756 H   0  0  0  0  0  0  0  0  0  0  0  0
   -1.4179    1.6520    1.4535 H   0  0  0  0  0  0  0  0  0  0  0  0
   -3.4095    0.7703    2.6230 H   0  0  0  0  0  0  0  0  0  0  0  0
   -2.4029   -0.3733    3.5289 H   0  0  0  0  0  0  0  0  0  0  0  0
   -2.2327    1.3689    3.7994 H   0  0  0  0  0  0  0  0  0  0  0  0
   -4.1468   -2.9713   -0.0542 H   0  0  0  0  0  0  0  0  0  0  0  0
   -3.6597   -1.8281    1.2293 H   0  0  0  0  0  0  0  0  0  0  0  0
   -6.0631   -1.5176    0.6130 H   0  0  0  0  0  0  0  0  0  0  0  0
   -5.1181   -0.0740    0.2121 H   0  0  0  0  0  0  0  0  0  0  0  0
   -5.5890   -1.1967   -1.0640 H   0  0  0  0  0  0  0  0  0  0  0  0
  1  2  1  0  0  0  0
  2  3  1  0  0  0  0
  3  4  1  0  0  0  0
  4  5  2  0  0  0  0
  4  6  2  0  0  0  0
  6  7  1  0  0  0  0
  7  8  1  0  0  0  0
  4  9  1  0  0  0  0
  9 10  1  0  0  0  0
 10 11  1  0  0  0  0
 11 12  1  0  0  0  0
 12 13  2  0  0  0  0
 12 14  2  0  0  0  0
 14 15  1  0  0  0  0
 15 16  1  0  0  0  0
 12 17  2  0  0  0  0
 17 18  1  0  0  0  0
 18 19  1  0  0  0  0
  1 20  1  0  0  0  0
  1 21  1  0  0  0  0
  1 22  1  0  0  0  0
  2 23  1  0  0  0  0
  2 24  1  0  0  0  0
  7 25  1  0  0  0  0
  7 26  1  0  0  0  0
  8 27  1  0  0  0  0
  8 28  1  0  0  0  0
  8 29  1  0  0  0  0
 10 30  1  0  0  0  0
 10 31  1  0  0  0  0
 15 32  1  0  0  0  0
 15 33  1  0  0  0  0
 16 34  1  0  0  0  0
 16 35  1  0  0  0  0
 16 36  1  0  0  0  0
 18 37  1  0  0  0  0
 18 38  1  0  0  0  0
 19 39  1  0  0  0  0
 19 40  1  0  0  0  0
 19 41  1  0  0  0  0
M  END
