 xtb: 6.7.1 (edcfbbe)
          04092505213D

 41 40  0     0  0            999 V2000
    1.4683   -0.6450   -2.8495 C   0  0  0  0  0  0  0  0  0  0  0  0
    2.1436    0.5603   -2.2253 C   0  0  0  0  0  0  0  0  0  0  0  0
    2.9628    0.1828   -1.1095 O   0  0  0  0  0  0  0  0  0  0  0  0
    2.4278    0.0331    0.3722 P   0  0  0  0  0  0  0  0  0  0  0  0
    1.2126    1.4661    0.9592 S   0  0  0  0  0  0  0  0  0  0  0  0
    3.8663   -0.0106    1.0223 O   0  0  0  0  0  0  0  0  0  0  0  0
    4.1812   -0.6023    2.2962 C   0  0  0  0  0  0  0  0  0  0  0  0
    3.3614   -0.0202    3.4299 C   0  0  0  0  0  0  0  0  0  0  0  0
    1.6740   -1.9446    0.6119 S   0  0  0  0  0  0  0  0  0  0  0  0
   -0.0170   -1.5937    1.1639 C   0  0  0  0  0  0  0  0  0  0  0  0
   -1.2733   -1.7585   -0.1485 S   0  0  0  0  0  0  0  0  0  0  0  0
   -2.0801    0.1913   -0.3573 P   0  0  0  0  0  0  0  0  0  0  0  0
   -1.3205    1.4691   -1.6443 S   0  0  0  0  0  0  0  0  0  0  0  0
   -2.1181    0.6143    1.1670 O   0  0  0  0  0  0  0  0  0  0  0  0
   -2.2494    1.9880    1.5807 C   0  0  0  0  0  0  0  0  0  0  0  0
   -3.5993    2.5618    1.2088 C   0  0  0  0  0  0  0  0  0  0  0  0
   -3.6134   -0.1226   -0.6506 O   0  0  0  0  0  0  0  0  0  0  0  0
   -4.1189   -0.2833   -1.9838 C   0  0  0  0  0  0  0  0  0  0  0  0
   -3.6184   -1.5638   -2.6206 C   0  0  0  0  0  0  0  0  0  0  0  0
    2.2065   -1.4021   -3.0986 H   0  0  0  0  0  0  0  0  0  0  0  0
    0.7402   -1.0758   -2.1638 H   0  0  0  0  0  0  0  0  0  0  0  0
    0.9479   -0.3299   -3.7485 H   0  0  0  0  0  0  0  0  0  0  0  0
    1.4022    1.3004   -1.9034 H   0  0  0  0  0  0  0  0  0  0  0  0
    2.8375    1.0298   -2.9244 H   0  0  0  0  0  0  0  0  0  0  0  0
    4.0306   -1.6828    2.2211 H   0  0  0  0  0  0  0  0  0  0  0  0
    5.2434   -0.3855    2.4213 H   0  0  0  0  0  0  0  0  0  0  0  0
    3.7050   -0.4328    4.3729 H   0  0  0  0  0  0  0  0  0  0  0  0
    3.4621    1.0625    3.4520 H   0  0  0  0  0  0  0  0  0  0  0  0
    2.3081   -0.2643    3.2973 H   0  0  0  0  0  0  0  0  0  0  0  0
   -0.0574   -0.5793    1.5657 H   0  0  0  0  0  0  0  0  0  0  0  0
   -0.2581   -2.3374    1.9177 H   0  0  0  0  0  0  0  0  0  0  0  0
   -2.1060    1.9479    2.6613 H   0  0  0  0  0  0  0  0  0  0  0  0
   -1.4355    2.5652    1.1288 H   0  0  0  0  0  0  0  0  0  0  0  0
   -4.3941    1.9271    1.5919 H   0  0  0  0  0  0  0  0  0  0  0  0
   -3.6936    3.5582    1.6290 H   0  0  0  0  0  0  0  0  0  0  0  0
   -3.6888    2.6253    0.1249 H   0  0  0  0  0  0  0  0  0  0  0  0
   -5.2024   -0.2887   -1.8589 H   0  0  0  0  0  0  0  0  0  0  0  0
   -3.8151    0.5857   -2.5776 H   0  0  0  0  0  0  0  0  0  0  0  0
   -4.0788   -1.6889   -3.5953 H   0  0  0  0  0  0  0  0  0  0  0  0
   -2.5362   -1.5142   -2.7429 H   0  0  0  0  0  0  0  0  0  0  0  0
   -3.8577   -2.4179   -1.9926 H   0  0  0  0  0  0  0  0  0  0  0  0
  1  2  1  0  0  0  0
  2  3  1  0  0  0  0
  3  4  2  0  0  0  0
  4  5  2  0  0  0  0
  4  6  2  0  0  0  0
  6  7  1  0  0  0  0
  7  8  1  0  0  0  0
  4  9  1  0  0  0  0
  9 10  1  0  0  0  0
 10 11  1  0  0  0  0
 11 12  1  0  0  0  0
 12 13  2  0  0  0  0
 12 14  2  0  0  0  0
 14 15  1  0  0  0  0
 15 16  1  0  0  0  0
 12 17  2  0  0  0  0
 17 18  1  0  0  0  0
 18 19  1  0  0  0  0
  1 20  1  0  0  0  0
  1 21  1  0  0  0  0
  1 22  1  0  0  0  0
  2 23  1  0  0  0  0
  2 24  1  0  0  0  0
  7 25  1  0  0  0  0
  7 26  1  0  0  0  0
  8 27  1  0  0  0  0
  8 28  1  0  0  0  0
  8 29  1  0  0  0  0
 10 30  1  0  0  0  0
 10 31  1  0  0  0  0
 15 32  1  0  0  0  0
 15 33  1  0  0  0  0
 16 34  1  0  0  0  0
 16 35  1  0  0  0  0
 16 36  1  0  0  0  0
 18 37  1  0  0  0  0
 18 38  1  0  0  0  0
 19 39  1  0  0  0  0
 19 40  1  0  0  0  0
 19 41  1  0  0  0  0
M  END
