 xtb: 6.7.1 (edcfbbe)
          04092505213D

 41 40  0     0  0            999 V2000
    1.9206   -0.3907   -3.1921 C   0  0  0  0  0  0  0  0  0  0  0  0
    1.8820   -1.3658   -2.0331 C   0  0  0  0  0  0  0  0  0  0  0  0
    1.2661   -0.7749   -0.8670 O   0  0  0  0  0  0  0  0  0  0  0  0
    2.0406    0.1306    0.1750 P   0  0  0  0  0  0  0  0  0  0  0  0
    2.8255    1.8358   -0.3817 S   0  0  0  0  0  0  0  0  0  0  0  0
    3.1249   -0.9235    0.6994 O   0  0  0  0  0  0  0  0  0  0  0  0
    4.2961   -0.5157    1.4213 C   0  0  0  0  0  0  0  0  0  0  0  0
    3.9622   -0.0823    2.8346 C   0  0  0  0  0  0  0  0  0  0  0  0
    0.5799    0.2539    1.6933 S   0  0  0  0  0  0  0  0  0  0  0  0
   -0.0414   -1.4478    1.6990 C   0  0  0  0  0  0  0  0  0  0  0  0
   -1.1645   -1.8633    0.3193 S   0  0  0  0  0  0  0  0  0  0  0  0
   -2.0236    0.0213   -0.1179 P   0  0  0  0  0  0  0  0  0  0  0  0
   -1.0150    1.3571   -1.1657 S   0  0  0  0  0  0  0  0  0  0  0  0
   -2.5058    0.4075    1.3409 O   0  0  0  0  0  0  0  0  0  0  0  0
   -3.6119    1.2860    1.6428 C   0  0  0  0  0  0  0  0  0  0  0  0
   -3.3624    2.7083    1.1867 C   0  0  0  0  0  0  0  0  0  0  0  0
   -3.3923   -0.3736   -0.8267 O   0  0  0  0  0  0  0  0  0  0  0  0
   -3.4944   -0.5269   -2.2519 C   0  0  0  0  0  0  0  0  0  0  0  0
   -2.7045   -1.7227   -2.7417 C   0  0  0  0  0  0  0  0  0  0  0  0
    2.5869    0.4402   -2.9681 H   0  0  0  0  0  0  0  0  0  0  0  0
    2.2721   -0.9019   -4.0825 H   0  0  0  0  0  0  0  0  0  0  0  0
    0.9269    0.0129   -3.3732 H   0  0  0  0  0  0  0  0  0  0  0  0
    2.8841   -1.7101   -1.7676 H   0  0  0  0  0  0  0  0  0  0  0  0
    1.2419   -2.2234   -2.2526 H   0  0  0  0  0  0  0  0  0  0  0  0
    4.9376   -1.3979    1.4089 H   0  0  0  0  0  0  0  0  0  0  0  0
    4.7724    0.3031    0.8722 H   0  0  0  0  0  0  0  0  0  0  0  0
    3.4321   -0.8713    3.3612 H   0  0  0  0  0  0  0  0  0  0  0  0
    4.8799    0.1516    3.3643 H   0  0  0  0  0  0  0  0  0  0  0  0
    3.3335    0.8074    2.8077 H   0  0  0  0  0  0  0  0  0  0  0  0
   -0.5870   -1.5521    2.6339 H   0  0  0  0  0  0  0  0  0  0  0  0
    0.7911   -2.1462    1.6425 H   0  0  0  0  0  0  0  0  0  0  0  0
   -4.5115    0.8767    1.1780 H   0  0  0  0  0  0  0  0  0  0  0  0
   -3.6896    1.2242    2.7296 H   0  0  0  0  0  0  0  0  0  0  0  0
   -4.1791    3.3421    1.5176 H   0  0  0  0  0  0  0  0  0  0  0  0
   -2.4273    3.0790    1.6011 H   0  0  0  0  0  0  0  0  0  0  0  0
   -3.2961    2.7513    0.1004 H   0  0  0  0  0  0  0  0  0  0  0  0
   -4.5640   -0.6432   -2.4297 H   0  0  0  0  0  0  0  0  0  0  0  0
   -3.1329    0.3925   -2.7247 H   0  0  0  0  0  0  0  0  0  0  0  0
   -2.8621   -1.8514   -3.8076 H   0  0  0  0  0  0  0  0  0  0  0  0
   -1.6431   -1.5551   -2.5572 H   0  0  0  0  0  0  0  0  0  0  0  0
   -3.0116   -2.6223   -2.2146 H   0  0  0  0  0  0  0  0  0  0  0  0
  1  2  1  0  0  0  0
  2  3  1  0  0  0  0
  3  4  2  0  0  0  0
  4  5  2  0  0  0  0
  4  6  1  0  0  0  0
  6  7  1  0  0  0  0
  7  8  1  0  0  0  0
  4  9  1  0  0  0  0
  9 10  1  0  0  0  0
 10 11  1  0  0  0  0
 11 12  1  0  0  0  0
 12 13  2  0  0  0  0
 12 14  2  0  0  0  0
 14 15  1  0  0  0  0
 15 16  1  0  0  0  0
 12 17  2  0  0  0  0
 17 18  1  0  0  0  0
 18 19  1  0  0  0  0
  1 20  1  0  0  0  0
  1 21  1  0  0  0  0
  1 22  1  0  0  0  0
  2 23  1  0  0  0  0
  2 24  1  0  0  0  0
  7 25  1  0  0  0  0
  7 26  1  0  0  0  0
  8 27  1  0  0  0  0
  8 28  1  0  0  0  0
  8 29  1  0  0  0  0
 10 30  1  0  0  0  0
 10 31  1  0  0  0  0
 15 32  1  0  0  0  0
 15 33  1  0  0  0  0
 16 34  1  0  0  0  0
 16 35  1  0  0  0  0
 16 36  1  0  0  0  0
 18 37  1  0  0  0  0
 18 38  1  0  0  0  0
 19 39  1  0  0  0  0
 19 40  1  0  0  0  0
 19 41  1  0  0  0  0
M  END
