 xtb: 6.7.1 (edcfbbe)
          04092505213D

 41 40  0     0  0            999 V2000
    3.9331   -2.2940   -1.0660 C   0  0  0  0  0  0  0  0  0  0  0  0
    4.6716   -1.0597   -0.5915 C   0  0  0  0  0  0  0  0  0  0  0  0
    3.8277   -0.1771    0.1739 O   0  0  0  0  0  0  0  0  0  0  0  0
    2.5896    0.5900   -0.4636 P   0  0  0  0  0  0  0  0  0  0  0  0
    2.8419    1.3166   -2.2605 S   0  0  0  0  0  0  0  0  0  0  0  0
    2.3257    1.7301    0.5940 O   0  0  0  0  0  0  0  0  0  0  0  0
    2.2645    1.4727    2.0198 C   0  0  0  0  0  0  0  0  0  0  0  0
    1.7260    2.7173    2.6911 C   0  0  0  0  0  0  0  0  0  0  0  0
    0.9696   -0.7626   -0.2462 S   0  0  0  0  0  0  0  0  0  0  0  0
   -0.1448    0.1554   -1.3670 C   0  0  0  0  0  0  0  0  0  0  0  0
   -1.7609   -0.6156   -1.4522 S   0  0  0  0  0  0  0  0  0  0  0  0
   -2.5405    0.0865    0.4195 P   0  0  0  0  0  0  0  0  0  0  0  0
   -1.4969    1.4905    1.2968 S   0  0  0  0  0  0  0  0  0  0  0  0
   -2.8137   -1.1868    1.3308 O   0  0  0  0  0  0  0  0  0  0  0  0
   -1.7932   -1.8773    2.0717 C   0  0  0  0  0  0  0  0  0  0  0  0
   -1.2940   -3.0899    1.3104 C   0  0  0  0  0  0  0  0  0  0  0  0
   -3.9971    0.5765    0.0926 O   0  0  0  0  0  0  0  0  0  0  0  0
   -4.9172   -0.0132   -0.8603 C   0  0  0  0  0  0  0  0  0  0  0  0
   -5.0868   -1.5043   -0.6717 C   0  0  0  0  0  0  0  0  0  0  0  0
    3.4348   -2.7818   -0.2320 H   0  0  0  0  0  0  0  0  0  0  0  0
    3.1876   -2.0193   -1.8107 H   0  0  0  0  0  0  0  0  0  0  0  0
    4.6411   -2.9819   -1.5168 H   0  0  0  0  0  0  0  0  0  0  0  0
    5.0731   -0.4993   -1.4411 H   0  0  0  0  0  0  0  0  0  0  0  0
    5.4752   -1.3110    0.1021 H   0  0  0  0  0  0  0  0  0  0  0  0
    1.6066    0.6154    2.1894 H   0  0  0  0  0  0  0  0  0  0  0  0
    3.2731    1.2309    2.3598 H   0  0  0  0  0  0  0  0  0  0  0  0
    0.7065    2.9053    2.3614 H   0  0  0  0  0  0  0  0  0  0  0  0
    1.7302    2.5714    3.7661 H   0  0  0  0  0  0  0  0  0  0  0  0
    2.3428    3.5744    2.4373 H   0  0  0  0  0  0  0  0  0  0  0  0
    0.2766    0.1463   -2.3710 H   0  0  0  0  0  0  0  0  0  0  0  0
   -0.2462    1.1759   -0.9912 H   0  0  0  0  0  0  0  0  0  0  0  0
   -0.9776   -1.1811    2.2930 H   0  0  0  0  0  0  0  0  0  0  0  0
   -2.2816   -2.1690    3.0034 H   0  0  0  0  0  0  0  0  0  0  0  0
   -0.7799   -2.7870    0.4007 H   0  0  0  0  0  0  0  0  0  0  0  0
   -0.5981   -3.6383    1.9364 H   0  0  0  0  0  0  0  0  0  0  0  0
   -2.1286   -3.7344    1.0501 H   0  0  0  0  0  0  0  0  0  0  0  0
   -5.8458    0.5279   -0.6724 H   0  0  0  0  0  0  0  0  0  0  0  0
   -4.5516    0.2131   -1.8650 H   0  0  0  0  0  0  0  0  0  0  0  0
   -5.3756   -1.7246    0.3525 H   0  0  0  0  0  0  0  0  0  0  0  0
   -5.8574   -1.8602   -1.3485 H   0  0  0  0  0  0  0  0  0  0  0  0
   -4.1541   -2.0181   -0.8977 H   0  0  0  0  0  0  0  0  0  0  0  0
  1  2  1  0  0  0  0
  2  3  1  0  0  0  0
  3  4  2  0  0  0  0
  4  5  2  0  0  0  0
  4  6  2  0  0  0  0
  6  7  1  0  0  0  0
  7  8  1  0  0  0  0
  4  9  1  0  0  0  0
  9 10  1  0  0  0  0
 10 11  1  0  0  0  0
 11 12  1  0  0  0  0
 12 13  2  0  0  0  0
 12 14  2  0  0  0  0
 14 15  1  0  0  0  0
 15 16  1  0  0  0  0
 12 17  2  0  0  0  0
 17 18  1  0  0  0  0
 18 19  1  0  0  0  0
  1 20  1  0  0  0  0
  1 21  1  0  0  0  0
  1 22  1  0  0  0  0
  2 23  1  0  0  0  0
  2 24  1  0  0  0  0
  7 25  1  0  0  0  0
  7 26  1  0  0  0  0
  8 27  1  0  0  0  0
  8 28  1  0  0  0  0
  8 29  1  0  0  0  0
 10 30  1  0  0  0  0
 10 31  1  0  0  0  0
 15 32  1  0  0  0  0
 15 33  1  0  0  0  0
 16 34  1  0  0  0  0
 16 35  1  0  0  0  0
 16 36  1  0  0  0  0
 18 37  1  0  0  0  0
 18 38  1  0  0  0  0
 19 39  1  0  0  0  0
 19 40  1  0  0  0  0
 19 41  1  0  0  0  0
M  END
