 xtb: 6.7.1 (edcfbbe)
          04092507313D

 38 37  0     0  0            999 V2000
    4.2856   -2.0516    0.9443 C   0  0  0  0  0  0  0  0  0  0  0  0
    2.8024   -2.0352    0.6322 C   0  0  0  0  0  0  0  0  0  0  0  0
    2.5736   -1.0650   -0.4077 O   0  0  0  0  0  0  0  0  0  0  0  0
    1.4148   -1.0669   -1.0203 C   0  0  0  0  0  0  0  0  0  0  0  0
    0.5072   -1.8401   -0.7769 O   0  0  0  0  0  0  0  0  0  0  0  0
    1.3237    0.0092   -2.0813 C   0  0  0  0  0  0  0  0  0  0  0  0
    0.1770    0.9708   -1.7744 C   0  0  0  0  0  0  0  0  0  0  0  0
    0.0667    1.6858   -2.5960 H   0  0  0  0  0  0  0  0  0  0  0  0
    0.3521    1.7636   -0.4908 C   0  0  0  0  0  0  0  0  0  0  0  0
   -0.5932    2.2297    0.1164 O   0  0  0  0  0  0  0  0  0  0  0  0
    1.6033    1.9014   -0.1538 O   0  0  0  0  0  0  0  0  0  0  0  0
    1.9036    2.5980    1.0738 C   0  0  0  0  0  0  0  0  0  0  0  0
    3.4105    2.6329    1.2228 C   0  0  0  0  0  0  0  0  0  0  0  0
   -1.4510    0.1432   -1.6950 S   0  0  0  0  0  0  0  0  0  0  0  0
   -1.7173   -0.2675    0.3779 P   0  0  0  0  0  0  0  0  0  0  0  0
   -0.3090   -0.3613    1.7362 S   0  0  0  0  0  0  0  0  0  0  0  0
   -2.8278    0.7415    0.8839 O   0  0  0  0  0  0  0  0  0  0  0  0
   -4.0439    1.0152    0.1674 C   0  0  0  0  0  0  0  0  0  0  0  0
   -2.6186   -1.5902    0.2928 O   0  0  0  0  0  0  0  0  0  0  0  0
   -2.1338   -2.9011   -0.0007 C   0  0  0  0  0  0  0  0  0  0  0  0
    4.6048   -1.0736    1.2909 H   0  0  0  0  0  0  0  0  0  0  0  0
    4.4772   -2.7838    1.7213 H   0  0  0  0  0  0  0  0  0  0  0  0
    4.8517   -2.3132    0.0553 H   0  0  0  0  0  0  0  0  0  0  0  0
    2.2026   -1.7455    1.5014 H   0  0  0  0  0  0  0  0  0  0  0  0
    2.4479   -3.0083    0.2779 H   0  0  0  0  0  0  0  0  0  0  0  0
    1.1217   -0.4723   -3.0391 H   0  0  0  0  0  0  0  0  0  0  0  0
    2.2647    0.5558   -2.1171 H   0  0  0  0  0  0  0  0  0  0  0  0
    1.4672    3.5996    1.0175 H   0  0  0  0  0  0  0  0  0  0  0  0
    1.4210    2.0543    1.8929 H   0  0  0  0  0  0  0  0  0  0  0  0
    3.8565    3.1810    0.3987 H   0  0  0  0  0  0  0  0  0  0  0  0
    3.6648    3.1182    2.1588 H   0  0  0  0  0  0  0  0  0  0  0  0
    3.8003    1.6195    1.2265 H   0  0  0  0  0  0  0  0  0  0  0  0
   -4.6378    0.1065    0.0838 H   0  0  0  0  0  0  0  0  0  0  0  0
   -3.8123    1.4073   -0.8230 H   0  0  0  0  0  0  0  0  0  0  0  0
   -4.5581    1.7635    0.7648 H   0  0  0  0  0  0  0  0  0  0  0  0
   -1.2775   -3.1356    0.6312 H   0  0  0  0  0  0  0  0  0  0  0  0
   -1.8358   -2.9642   -1.0461 H   0  0  0  0  0  0  0  0  0  0  0  0
   -2.9654   -3.5688    0.2108 H   0  0  0  0  0  0  0  0  0  0  0  0
  1  2  1  0  0  0  0
  2  3  1  0  0  0  0
  3  4  4  0  0  0  0
  4  5  2  0  0  0  0
  4  6  1  0  0  0  0
  6  7  1  0  0  0  0
  7  8  1  0  0  0  0
  7  9  1  0  0  0  0
  9 10  2  0  0  0  0
  9 11  4  0  0  0  0
 11 12  1  0  0  0  0
 12 13  1  0  0  0  0
  7 14  1  0  0  0  0
 14 15  1  0  0  0  0
 15 16  2  0  0  0  0
 15 17  2  0  0  0  0
 17 18  1  0  0  0  0
 15 19  1  0  0  0  0
 19 20  1  0  0  0  0
  1 21  1  0  0  0  0
  1 22  1  0  0  0  0
  1 23  1  0  0  0  0
  2 24  1  0  0  0  0
  2 25  1  0  0  0  0
  6 26  1  0  0  0  0
  6 27  1  0  0  0  0
 12 28  1  0  0  0  0
 12 29  1  0  0  0  0
 13 30  1  0  0  0  0
 13 31  1  0  0  0  0
 13 32  1  0  0  0  0
 18 33  1  0  0  0  0
 18 34  1  0  0  0  0
 18 35  1  0  0  0  0
 20 36  1  0  0  0  0
 20 37  1  0  0  0  0
 20 38  1  0  0  0  0
M  END
