 xtb: 6.7.1 (edcfbbe)
          04092505213D

 41 40  0     0  0            999 V2000
    4.7463   -2.5240   -0.2316 C   0  0  0  0  0  0  0  0  0  0  0  0
    4.4215   -1.4707   -1.2709 C   0  0  0  0  0  0  0  0  0  0  0  0
    3.0058   -1.1938   -1.3169 O   0  0  0  0  0  0  0  0  0  0  0  0
    2.2956   -0.1428   -0.3732 P   0  0  0  0  0  0  0  0  0  0  0  0
    3.3453    1.4046    0.2130 S   0  0  0  0  0  0  0  0  0  0  0  0
    1.6919   -1.0299    0.8059 O   0  0  0  0  0  0  0  0  0  0  0  0
    1.6442   -0.6202    2.1880 C   0  0  0  0  0  0  0  0  0  0  0  0
    2.8612   -1.1162    2.9427 C   0  0  0  0  0  0  0  0  0  0  0  0
    0.6786    0.2433   -1.6841 S   0  0  0  0  0  0  0  0  0  0  0  0
    0.0514    1.7042   -0.8062 C   0  0  0  0  0  0  0  0  0  0  0  0
   -0.8254    1.2846    0.7143 S   0  0  0  0  0  0  0  0  0  0  0  0
   -2.4660    0.2977   -0.2444 P   0  0  0  0  0  0  0  0  0  0  0  0
   -3.0461    1.0772   -1.9405 S   0  0  0  0  0  0  0  0  0  0  0  0
   -3.5181    0.1546    0.9356 O   0  0  0  0  0  0  0  0  0  0  0  0
   -3.9633    1.2260    1.7905 C   0  0  0  0  0  0  0  0  0  0  0  0
   -4.4991    2.4111    1.0160 C   0  0  0  0  0  0  0  0  0  0  0  0
   -2.0284   -1.1988   -0.4700 O   0  0  0  0  0  0  0  0  0  0  0  0
   -1.6346   -2.0863    0.6037 C   0  0  0  0  0  0  0  0  0  0  0  0
   -2.7344   -3.0911    0.8768 C   0  0  0  0  0  0  0  0  0  0  0  0
    5.7979   -2.7836   -0.3040 H   0  0  0  0  0  0  0  0  0  0  0  0
    4.5420   -2.1429    0.7658 H   0  0  0  0  0  0  0  0  0  0  0  0
    4.1436   -3.4121   -0.4013 H   0  0  0  0  0  0  0  0  0  0  0  0
    4.6592   -1.8149   -2.2789 H   0  0  0  0  0  0  0  0  0  0  0  0
    4.9545   -0.5361   -1.0659 H   0  0  0  0  0  0  0  0  0  0  0  0
    1.5765    0.4699    2.2419 H   0  0  0  0  0  0  0  0  0  0  0  0
    0.7270   -1.0627    2.5787 H   0  0  0  0  0  0  0  0  0  0  0  0
    2.9620   -2.1924    2.8319 H   0  0  0  0  0  0  0  0  0  0  0  0
    3.7574   -0.6262    2.5670 H   0  0  0  0  0  0  0  0  0  0  0  0
    2.7467   -0.8734    3.9942 H   0  0  0  0  0  0  0  0  0  0  0  0
   -0.6371    2.2032   -1.4886 H   0  0  0  0  0  0  0  0  0  0  0  0
    0.8825    2.3541   -0.5310 H   0  0  0  0  0  0  0  0  0  0  0  0
   -4.7422    0.7617    2.3978 H   0  0  0  0  0  0  0  0  0  0  0  0
   -3.1242    1.5261    2.4242 H   0  0  0  0  0  0  0  0  0  0  0  0
   -3.7027    2.8708    0.4325 H   0  0  0  0  0  0  0  0  0  0  0  0
   -5.2838    2.0954    0.3327 H   0  0  0  0  0  0  0  0  0  0  0  0
   -4.8984    3.1444    1.7092 H   0  0  0  0  0  0  0  0  0  0  0  0
   -0.7210   -2.5711    0.2516 H   0  0  0  0  0  0  0  0  0  0  0  0
   -1.4157   -1.4903    1.4941 H   0  0  0  0  0  0  0  0  0  0  0  0
   -2.4062   -3.7804    1.6484 H   0  0  0  0  0  0  0  0  0  0  0  0
   -3.6336   -2.5778    1.2081 H   0  0  0  0  0  0  0  0  0  0  0  0
   -2.9629   -3.6461   -0.0288 H   0  0  0  0  0  0  0  0  0  0  0  0
  1  2  1  0  0  0  0
  2  3  1  0  0  0  0
  3  4  2  0  0  0  0
  4  5  2  0  0  0  0
  4  6  2  0  0  0  0
  6  7  1  0  0  0  0
  7  8  1  0  0  0  0
  4  9  1  0  0  0  0
  9 10  1  0  0  0  0
 10 11  1  0  0  0  0
 11 12  1  0  0  0  0
 12 13  2  0  0  0  0
 12 14  2  0  0  0  0
 14 15  1  0  0  0  0
 15 16  1  0  0  0  0
 12 17  2  0  0  0  0
 17 18  1  0  0  0  0
 18 19  1  0  0  0  0
  1 20  1  0  0  0  0
  1 21  1  0  0  0  0
  1 22  1  0  0  0  0
  2 23  1  0  0  0  0
  2 24  1  0  0  0  0
  7 25  1  0  0  0  0
  7 26  1  0  0  0  0
  8 27  1  0  0  0  0
  8 28  1  0  0  0  0
  8 29  1  0  0  0  0
 10 30  1  0  0  0  0
 10 31  1  0  0  0  0
 15 32  1  0  0  0  0
 15 33  1  0  0  0  0
 16 34  1  0  0  0  0
 16 35  1  0  0  0  0
 16 36  1  0  0  0  0
 18 37  1  0  0  0  0
 18 38  1  0  0  0  0
 19 39  1  0  0  0  0
 19 40  1  0  0  0  0
 19 41  1  0  0  0  0
M  END
