 xtb: 6.7.1 (edcfbbe)
          04092505213D

 41 40  0     0  0            999 V2000
    5.9638   -0.8930   -1.3163 C   0  0  0  0  0  0  0  0  0  0  0  0
    4.5610   -0.3296   -1.4195 C   0  0  0  0  0  0  0  0  0  0  0  0
    3.8422   -0.7084   -0.2291 O   0  0  0  0  0  0  0  0  0  0  0  0
    2.5445    0.0799    0.2345 P   0  0  0  0  0  0  0  0  0  0  0  0
    2.7573    2.0237    0.3285 S   0  0  0  0  0  0  0  0  0  0  0  0
    2.2351   -0.5368    1.6476 O   0  0  0  0  0  0  0  0  0  0  0  0
    1.6780   -1.8477    1.9134 C   0  0  0  0  0  0  0  0  0  0  0  0
    2.4819   -2.9698    1.2944 C   0  0  0  0  0  0  0  0  0  0  0  0
    1.0368   -0.6052   -1.1117 S   0  0  0  0  0  0  0  0  0  0  0  0
   -0.0843    0.7955   -0.9055 C   0  0  0  0  0  0  0  0  0  0  0  0
   -0.9532    0.7703    0.6886 S   0  0  0  0  0  0  0  0  0  0  0  0
   -2.9121    0.2119    0.0212 P   0  0  0  0  0  0  0  0  0  0  0  0
   -3.1345   -0.0060   -1.9200 S   0  0  0  0  0  0  0  0  0  0  0  0
   -3.9050    1.2616    0.6697 O   0  0  0  0  0  0  0  0  0  0  0  0
   -4.3204    2.4473   -0.0265 C   0  0  0  0  0  0  0  0  0  0  0  0
   -3.1913    3.4499   -0.1650 C   0  0  0  0  0  0  0  0  0  0  0  0
   -3.3386   -0.9872    0.9585 O   0  0  0  0  0  0  0  0  0  0  0  0
   -2.5229   -2.1294    1.2750 C   0  0  0  0  0  0  0  0  0  0  0  0
   -1.9924   -2.8345    0.0425 C   0  0  0  0  0  0  0  0  0  0  0  0
    6.4653   -0.4854   -0.4430 H   0  0  0  0  0  0  0  0  0  0  0  0
    5.9252   -1.9747   -1.2283 H   0  0  0  0  0  0  0  0  0  0  0  0
    6.5218   -0.6241   -2.2072 H   0  0  0  0  0  0  0  0  0  0  0  0
    4.0281   -0.7378   -2.2824 H   0  0  0  0  0  0  0  0  0  0  0  0
    4.5731    0.7636   -1.4892 H   0  0  0  0  0  0  0  0  0  0  0  0
    1.6796   -1.8994    3.0031 H   0  0  0  0  0  0  0  0  0  0  0  0
    0.6495   -1.8579    1.5435 H   0  0  0  0  0  0  0  0  0  0  0  0
    2.4197   -2.9246    0.2090 H   0  0  0  0  0  0  0  0  0  0  0  0
    3.5244   -2.8930    1.5913 H   0  0  0  0  0  0  0  0  0  0  0  0
    2.0808   -3.9202    1.6327 H   0  0  0  0  0  0  0  0  0  0  0  0
   -0.8176    0.7381   -1.7141 H   0  0  0  0  0  0  0  0  0  0  0  0
    0.4989    1.7159   -0.9477 H   0  0  0  0  0  0  0  0  0  0  0  0
   -4.7032    2.1606   -1.0117 H   0  0  0  0  0  0  0  0  0  0  0  0
   -5.1332    2.8405    0.5855 H   0  0  0  0  0  0  0  0  0  0  0  0
   -3.5799    4.3767   -0.5749 H   0  0  0  0  0  0  0  0  0  0  0  0
   -2.7390    3.6466    0.8040 H   0  0  0  0  0  0  0  0  0  0  0  0
   -2.4275    3.0621   -0.8386 H   0  0  0  0  0  0  0  0  0  0  0  0
   -1.7063   -1.7953    1.9224 H   0  0  0  0  0  0  0  0  0  0  0  0
   -3.1962   -2.7744    1.8425 H   0  0  0  0  0  0  0  0  0  0  0  0
   -1.3029   -2.1909   -0.5044 H   0  0  0  0  0  0  0  0  0  0  0  0
   -1.4700   -3.7386    0.3392 H   0  0  0  0  0  0  0  0  0  0  0  0
   -2.8121   -3.0964   -0.6223 H   0  0  0  0  0  0  0  0  0  0  0  0
  1  2  1  0  0  0  0
  2  3  1  0  0  0  0
  3  4  2  0  0  0  0
  4  5  2  0  0  0  0
  4  6  2  0  0  0  0
  6  7  1  0  0  0  0
  7  8  1  0  0  0  0
  4  9  1  0  0  0  0
  9 10  1  0  0  0  0
 10 11  1  0  0  0  0
 11 12  1  0  0  0  0
 12 13  2  0  0  0  0
 12 14  2  0  0  0  0
 14 15  1  0  0  0  0
 15 16  1  0  0  0  0
 12 17  2  0  0  0  0
 17 18  1  0  0  0  0
 18 19  1  0  0  0  0
  1 20  1  0  0  0  0
  1 21  1  0  0  0  0
  1 22  1  0  0  0  0
  2 23  1  0  0  0  0
  2 24  1  0  0  0  0
  7 25  1  0  0  0  0
  7 26  1  0  0  0  0
  8 27  1  0  0  0  0
  8 28  1  0  0  0  0
  8 29  1  0  0  0  0
 10 30  1  0  0  0  0
 10 31  1  0  0  0  0
 15 32  1  0  0  0  0
 15 33  1  0  0  0  0
 16 34  1  0  0  0  0
 16 35  1  0  0  0  0
 16 36  1  0  0  0  0
 18 37  1  0  0  0  0
 18 38  1  0  0  0  0
 19 39  1  0  0  0  0
 19 40  1  0  0  0  0
 19 41  1  0  0  0  0
M  END
