 xtb: 6.7.1 (edcfbbe)
          04092505203D

 41 40  0     0  0            999 V2000
    3.3822   -1.1156   -2.9767 C   0  0  0  0  0  0  0  0  0  0  0  0
    2.1532   -0.6078   -2.2532 C   0  0  0  0  0  0  0  0  0  0  0  0
    2.5327    0.2547   -1.1535 O   0  0  0  0  0  0  0  0  0  0  0  0
    2.5653   -0.2312    0.3463 P   0  0  0  0  0  0  0  0  0  0  0  0
    3.2814    1.1471    1.5319 S   0  0  0  0  0  0  0  0  0  0  0  0
    3.3863   -1.5893    0.2611 O   0  0  0  0  0  0  0  0  0  0  0  0
    3.9851   -2.2064    1.4172 C   0  0  0  0  0  0  0  0  0  0  0  0
    2.9527   -2.6826    2.4179 C   0  0  0  0  0  0  0  0  0  0  0  0
    0.5790   -0.8532    0.7632 S   0  0  0  0  0  0  0  0  0  0  0  0
   -0.0107    0.8136    1.2249 C   0  0  0  0  0  0  0  0  0  0  0  0
   -1.7938    0.8555    1.4089 S   0  0  0  0  0  0  0  0  0  0  0  0
   -2.3424    0.8987   -0.6636 P   0  0  0  0  0  0  0  0  0  0  0  0
   -0.8660    1.3194   -1.8821 S   0  0  0  0  0  0  0  0  0  0  0  0
   -3.4977    1.9594   -0.7733 O   0  0  0  0  0  0  0  0  0  0  0  0
   -4.8737    1.7454   -0.3667 C   0  0  0  0  0  0  0  0  0  0  0  0
   -5.0013    1.4479    1.1114 C   0  0  0  0  0  0  0  0  0  0  0  0
   -3.1162   -0.4536   -0.9780 O   0  0  0  0  0  0  0  0  0  0  0  0
   -2.4682   -1.7242   -1.1751 C   0  0  0  0  0  0  0  0  0  0  0  0
   -2.5041   -2.5538    0.0933 C   0  0  0  0  0  0  0  0  0  0  0  0
    3.9867   -0.2775   -3.3124 H   0  0  0  0  0  0  0  0  0  0  0  0
    3.9784   -1.7371   -2.3137 H   0  0  0  0  0  0  0  0  0  0  0  0
    3.0702   -1.7001   -3.8364 H   0  0  0  0  0  0  0  0  0  0  0  0
    1.5522   -1.4342   -1.8632 H   0  0  0  0  0  0  0  0  0  0  0  0
    1.5328    0.0214   -2.8956 H   0  0  0  0  0  0  0  0  0  0  0  0
    4.5547   -3.0376    0.9992 H   0  0  0  0  0  0  0  0  0  0  0  0
    4.6642   -1.4830    1.8782 H   0  0  0  0  0  0  0  0  0  0  0  0
    2.2077   -3.3047    1.9283 H   0  0  0  0  0  0  0  0  0  0  0  0
    3.4478   -3.2554    3.1954 H   0  0  0  0  0  0  0  0  0  0  0  0
    2.4543   -1.8288    2.8744 H   0  0  0  0  0  0  0  0  0  0  0  0
    0.2921    1.5130    0.4423 H   0  0  0  0  0  0  0  0  0  0  0  0
    0.4222    1.0893    2.1846 H   0  0  0  0  0  0  0  0  0  0  0  0
   -5.3581    2.6858   -0.6331 H   0  0  0  0  0  0  0  0  0  0  0  0
   -5.2817    0.9314   -0.9682 H   0  0  0  0  0  0  0  0  0  0  0  0
   -6.0535    1.3741    1.3682 H   0  0  0  0  0  0  0  0  0  0  0  0
   -4.5105    0.5065    1.3519 H   0  0  0  0  0  0  0  0  0  0  0  0
   -4.5433    2.2381    1.7006 H   0  0  0  0  0  0  0  0  0  0  0  0
   -3.0380   -2.2003   -1.9754 H   0  0  0  0  0  0  0  0  0  0  0  0
   -1.4415   -1.5535   -1.5137 H   0  0  0  0  0  0  0  0  0  0  0  0
   -2.0948   -3.5363   -0.1166 H   0  0  0  0  0  0  0  0  0  0  0  0
   -1.9074   -2.0877    0.8744 H   0  0  0  0  0  0  0  0  0  0  0  0
   -3.5278   -2.6578    0.4408 H   0  0  0  0  0  0  0  0  0  0  0  0
  1  2  1  0  0  0  0
  2  3  1  0  0  0  0
  3  4  2  0  0  0  0
  4  5  2  0  0  0  0
  4  6  2  0  0  0  0
  6  7  1  0  0  0  0
  7  8  1  0  0  0  0
  4  9  1  0  0  0  0
  9 10  1  0  0  0  0
 10 11  1  0  0  0  0
 11 12  1  0  0  0  0
 12 13  2  0  0  0  0
 12 14  2  0  0  0  0
 14 15  1  0  0  0  0
 15 16  1  0  0  0  0
 12 17  2  0  0  0  0
 17 18  1  0  0  0  0
 18 19  1  0  0  0  0
  1 20  1  0  0  0  0
  1 21  1  0  0  0  0
  1 22  1  0  0  0  0
  2 23  1  0  0  0  0
  2 24  1  0  0  0  0
  7 25  1  0  0  0  0
  7 26  1  0  0  0  0
  8 27  1  0  0  0  0
  8 28  1  0  0  0  0
  8 29  1  0  0  0  0
 10 30  1  0  0  0  0
 10 31  1  0  0  0  0
 15 32  1  0  0  0  0
 15 33  1  0  0  0  0
 16 34  1  0  0  0  0
 16 35  1  0  0  0  0
 16 36  1  0  0  0  0
 18 37  1  0  0  0  0
 18 38  1  0  0  0  0
 19 39  1  0  0  0  0
 19 40  1  0  0  0  0
 19 41  1  0  0  0  0
M  END
