 xtb: 6.7.1 (edcfbbe)
          04092505213D

 41 40  0     0  0            999 V2000
    1.4437   -0.3833   -2.8862 C   0  0  0  0  0  0  0  0  0  0  0  0
    2.4994    0.2639   -2.0118 C   0  0  0  0  0  0  0  0  0  0  0  0
    2.8881   -0.6177   -0.9439 O   0  0  0  0  0  0  0  0  0  0  0  0
    2.3630   -0.5022    0.5509 P   0  0  0  0  0  0  0  0  0  0  0  0
    2.4658    1.2841    1.3629 S   0  0  0  0  0  0  0  0  0  0  0  0
    3.2315   -1.6110    1.2722 O   0  0  0  0  0  0  0  0  0  0  0  0
    4.5105   -1.3215    1.8730 C   0  0  0  0  0  0  0  0  0  0  0  0
    5.5636   -1.0005    0.8337 C   0  0  0  0  0  0  0  0  0  0  0  0
    0.5083   -1.5049    0.5764 S   0  0  0  0  0  0  0  0  0  0  0  0
   -0.3358   -0.5128    1.8610 C   0  0  0  0  0  0  0  0  0  0  0  0
   -2.1008   -0.3793    1.5327 S   0  0  0  0  0  0  0  0  0  0  0  0
   -1.9833    0.5506   -0.3883 P   0  0  0  0  0  0  0  0  0  0  0  0
   -0.5517    1.8619   -0.6272 S   0  0  0  0  0  0  0  0  0  0  0  0
   -3.4594    1.1060   -0.5695 O   0  0  0  0  0  0  0  0  0  0  0  0
   -3.9359    2.2288    0.2012 C   0  0  0  0  0  0  0  0  0  0  0  0
   -5.2408    2.6914   -0.4145 C   0  0  0  0  0  0  0  0  0  0  0  0
   -1.9105   -0.6059   -1.4505 O   0  0  0  0  0  0  0  0  0  0  0  0
   -2.8777   -1.6852   -1.5266 C   0  0  0  0  0  0  0  0  0  0  0  0
   -3.9195   -1.3905   -2.5855 C   0  0  0  0  0  0  0  0  0  0  0  0
    1.2637    0.2495   -3.7494 H   0  0  0  0  0  0  0  0  0  0  0  0
    1.7826   -1.3616   -3.2148 H   0  0  0  0  0  0  0  0  0  0  0  0
    0.5099   -0.4973   -2.3386 H   0  0  0  0  0  0  0  0  0  0  0  0
    2.1397    1.2091   -1.5913 H   0  0  0  0  0  0  0  0  0  0  0  0
    3.4183    0.4438   -2.5733 H   0  0  0  0  0  0  0  0  0  0  0  0
    4.3836   -0.4833    2.5656 H   0  0  0  0  0  0  0  0  0  0  0  0
    4.7486   -2.2310    2.4258 H   0  0  0  0  0  0  0  0  0  0  0  0
    6.5289   -0.8956    1.3190 H   0  0  0  0  0  0  0  0  0  0  0  0
    5.6131   -1.7934    0.0920 H   0  0  0  0  0  0  0  0  0  0  0  0
    5.3151   -0.0654    0.3333 H   0  0  0  0  0  0  0  0  0  0  0  0
    0.1152    0.4839    1.8766 H   0  0  0  0  0  0  0  0  0  0  0  0
   -0.2396   -1.0063    2.8249 H   0  0  0  0  0  0  0  0  0  0  0  0
   -4.0746    1.8999    1.2346 H   0  0  0  0  0  0  0  0  0  0  0  0
   -3.1760    3.0167    0.1748 H   0  0  0  0  0  0  0  0  0  0  0  0
   -5.6211    3.5352    0.1516 H   0  0  0  0  0  0  0  0  0  0  0  0
   -5.0807    2.9949   -1.4453 H   0  0  0  0  0  0  0  0  0  0  0  0
   -5.9688    1.8858   -0.3911 H   0  0  0  0  0  0  0  0  0  0  0  0
   -2.2829   -2.5647   -1.7792 H   0  0  0  0  0  0  0  0  0  0  0  0
   -3.3357   -1.8199   -0.5430 H   0  0  0  0  0  0  0  0  0  0  0  0
   -4.5933   -2.2378   -2.6647 H   0  0  0  0  0  0  0  0  0  0  0  0
   -4.4867   -0.5033   -2.3177 H   0  0  0  0  0  0  0  0  0  0  0  0
   -3.4386   -1.2227   -3.5450 H   0  0  0  0  0  0  0  0  0  0  0  0
  1  2  1  0  0  0  0
  2  3  1  0  0  0  0
  3  4  2  0  0  0  0
  4  5  2  0  0  0  0
  4  6  2  0  0  0  0
  6  7  1  0  0  0  0
  7  8  1  0  0  0  0
  4  9  1  0  0  0  0
  9 10  1  0  0  0  0
 10 11  1  0  0  0  0
 11 12  1  0  0  0  0
 12 13  2  0  0  0  0
 12 14  2  0  0  0  0
 14 15  1  0  0  0  0
 15 16  1  0  0  0  0
 12 17  2  0  0  0  0
 17 18  1  0  0  0  0
 18 19  1  0  0  0  0
  1 20  1  0  0  0  0
  1 21  1  0  0  0  0
  1 22  1  0  0  0  0
  2 23  1  0  0  0  0
  2 24  1  0  0  0  0
  7 25  1  0  0  0  0
  7 26  1  0  0  0  0
  8 27  1  0  0  0  0
  8 28  1  0  0  0  0
  8 29  1  0  0  0  0
 10 30  1  0  0  0  0
 10 31  1  0  0  0  0
 15 32  1  0  0  0  0
 15 33  1  0  0  0  0
 16 34  1  0  0  0  0
 16 35  1  0  0  0  0
 16 36  1  0  0  0  0
 18 37  1  0  0  0  0
 18 38  1  0  0  0  0
 19 39  1  0  0  0  0
 19 40  1  0  0  0  0
 19 41  1  0  0  0  0
M  END
