 xtb: 6.7.1 (edcfbbe)
          04032519543D

 17 17  0     0  0            999 V2000
    1.8502   -1.4699   -0.0003 C   0  0  0  0  0  0  0  0  0  0  0  0
    0.5697   -0.6942    0.0004 C   0  0  0  0  0  0  0  0  0  0  0  0
   -0.6403   -1.3831    0.0002 C   0  0  0  0  0  0  0  0  0  0  0  0
   -1.8294   -0.6789   -0.0001 C   0  0  0  0  0  0  0  0  0  0  0  0
   -1.8850    0.6454   -0.0002 N   0  0  0  0  0  0  0  0  0  0  0  0
   -0.7355    1.3001    0.0000 C   0  0  0  0  0  0  0  0  0  0  0  0
    0.5214    0.7035    0.0002 C   0  0  0  0  0  0  0  0  0  0  0  0
    1.7540    1.5539    0.0000 C   0  0  0  0  0  0  0  0  0  0  0  0
    2.7192   -0.8222    0.0136 H   0  0  0  0  0  0  0  0  0  0  0  0
    1.8839   -2.1225    0.8703 H   0  0  0  0  0  0  0  0  0  0  0  0
    1.8959   -2.1000   -0.8869 H   0  0  0  0  0  0  0  0  0  0  0  0
   -0.6483   -2.4624    0.0004 H   0  0  0  0  0  0  0  0  0  0  0  0
   -2.7847   -1.1866   -0.0003 H   0  0  0  0  0  0  0  0  0  0  0  0
   -0.8255    2.3796   -0.0001 H   0  0  0  0  0  0  0  0  0  0  0  0
    1.4828    2.6062   -0.0005 H   0  0  0  0  0  0  0  0  0  0  0  0
    2.3580    1.3529    0.8831 H   0  0  0  0  0  0  0  0  0  0  0  0
    2.3583    1.3519   -0.8826 H   0  0  0  0  0  0  0  0  0  0  0  0
  1  2  1  0  0  0  0
  2  3  4  0  0  0  0
  3  4  4  0  0  0  0
  4  5  4  0  0  0  0
  5  6  4  0  0  0  0
  2  7  4  0  0  0  0
  6  7  4  0  0  0  0
  7  8  1  0  0  0  0
  1  9  1  0  0  0  0
  1 10  1  0  0  0  0
  1 11  1  0  0  0  0
  3 12  1  0  0  0  0
  4 13  1  0  0  0  0
  6 14  1  0  0  0  0
  8 15  1  0  0  0  0
  8 16  1  0  0  0  0
  8 17  1  0  0  0  0
M  END
