 xtb: 6.7.1 (edcfbbe)
          04092505213D

 41 40  0     0  0            999 V2000
    5.4424   -1.2290   -0.9864 C   0  0  0  0  0  0  0  0  0  0  0  0
    4.1669   -0.7051   -1.6136 C   0  0  0  0  0  0  0  0  0  0  0  0
    3.5828    0.3447   -0.8025 O   0  0  0  0  0  0  0  0  0  0  0  0
    2.4802    0.1038    0.3015 P   0  0  0  0  0  0  0  0  0  0  0  0
    2.0898    1.7517    1.2737 S   0  0  0  0  0  0  0  0  0  0  0  0
    3.0709   -1.0879    1.1707 O   0  0  0  0  0  0  0  0  0  0  0  0
    2.5917   -1.3689    2.4987 C   0  0  0  0  0  0  0  0  0  0  0  0
    1.1521   -1.8401    2.4966 C   0  0  0  0  0  0  0  0  0  0  0  0
    0.8929   -0.8352   -0.7879 S   0  0  0  0  0  0  0  0  0  0  0  0
    0.2902    0.6679   -1.5948 C   0  0  0  0  0  0  0  0  0  0  0  0
   -0.8597    1.6307   -0.5740 S   0  0  0  0  0  0  0  0  0  0  0  0
   -2.4159    0.2007   -0.5848 P   0  0  0  0  0  0  0  0  0  0  0  0
   -2.7235   -0.7481   -2.2629 S   0  0  0  0  0  0  0  0  0  0  0  0
   -3.7091    0.9908   -0.1214 O   0  0  0  0  0  0  0  0  0  0  0  0
   -3.8209    1.6758    1.1506 C   0  0  0  0  0  0  0  0  0  0  0  0
   -3.5515    3.1587    0.9930 C   0  0  0  0  0  0  0  0  0  0  0  0
   -1.9659   -0.7049    0.6566 O   0  0  0  0  0  0  0  0  0  0  0  0
   -2.3170   -2.1002    0.7391 C   0  0  0  0  0  0  0  0  0  0  0  0
   -3.7945   -2.2842    1.0197 C   0  0  0  0  0  0  0  0  0  0  0  0
    5.8985   -1.9473   -1.6606 H   0  0  0  0  0  0  0  0  0  0  0  0
    6.1350   -0.4099   -0.8128 H   0  0  0  0  0  0  0  0  0  0  0  0
    5.2266   -1.7134   -0.0383 H   0  0  0  0  0  0  0  0  0  0  0  0
    3.4311   -1.5037   -1.7431 H   0  0  0  0  0  0  0  0  0  0  0  0
    4.3659   -0.2249   -2.5735 H   0  0  0  0  0  0  0  0  0  0  0  0
    3.2684   -2.1430    2.8632 H   0  0  0  0  0  0  0  0  0  0  0  0
    2.6995   -0.4625    3.1022 H   0  0  0  0  0  0  0  0  0  0  0  0
    0.4975   -1.0275    2.1815 H   0  0  0  0  0  0  0  0  0  0  0  0
    1.0314   -2.6763    1.8116 H   0  0  0  0  0  0  0  0  0  0  0  0
    0.8737   -2.1477    3.4996 H   0  0  0  0  0  0  0  0  0  0  0  0
   -0.2255    0.3517   -2.5017 H   0  0  0  0  0  0  0  0  0  0  0  0
    1.1273    1.3262   -1.8206 H   0  0  0  0  0  0  0  0  0  0  0  0
   -4.8507    1.4939    1.4632 H   0  0  0  0  0  0  0  0  0  0  0  0
   -3.1285    1.2217    1.8637 H   0  0  0  0  0  0  0  0  0  0  0  0
   -4.1969    3.5743    0.2241 H   0  0  0  0  0  0  0  0  0  0  0  0
   -3.7497    3.6572    1.9367 H   0  0  0  0  0  0  0  0  0  0  0  0
   -2.5145    3.3331    0.7121 H   0  0  0  0  0  0  0  0  0  0  0  0
   -2.0373   -2.5832   -0.2022 H   0  0  0  0  0  0  0  0  0  0  0  0
   -1.6976   -2.4826    1.5512 H   0  0  0  0  0  0  0  0  0  0  0  0
   -4.0717   -1.7833    1.9438 H   0  0  0  0  0  0  0  0  0  0  0  0
   -4.3787   -1.8655    0.2002 H   0  0  0  0  0  0  0  0  0  0  0  0
   -4.0154   -3.3434    1.1039 H   0  0  0  0  0  0  0  0  0  0  0  0
  1  2  1  0  0  0  0
  2  3  1  0  0  0  0
  3  4  2  0  0  0  0
  4  5  2  0  0  0  0
  4  6  2  0  0  0  0
  6  7  1  0  0  0  0
  7  8  1  0  0  0  0
  4  9  1  0  0  0  0
  9 10  1  0  0  0  0
 10 11  1  0  0  0  0
 11 12  1  0  0  0  0
 12 13  2  0  0  0  0
 12 14  2  0  0  0  0
 14 15  1  0  0  0  0
 15 16  1  0  0  0  0
 12 17  1  0  0  0  0
 17 18  1  0  0  0  0
 18 19  1  0  0  0  0
  1 20  1  0  0  0  0
  1 21  1  0  0  0  0
  1 22  1  0  0  0  0
  2 23  1  0  0  0  0
  2 24  1  0  0  0  0
  7 25  1  0  0  0  0
  7 26  1  0  0  0  0
  8 27  1  0  0  0  0
  8 28  1  0  0  0  0
  8 29  1  0  0  0  0
 10 30  1  0  0  0  0
 10 31  1  0  0  0  0
 15 32  1  0  0  0  0
 15 33  1  0  0  0  0
 16 34  1  0  0  0  0
 16 35  1  0  0  0  0
 16 36  1  0  0  0  0
 18 37  1  0  0  0  0
 18 38  1  0  0  0  0
 19 39  1  0  0  0  0
 19 40  1  0  0  0  0
 19 41  1  0  0  0  0
M  END
