 xtb: 6.7.1 (edcfbbe)
          04092505213D

 41 40  0     0  0            999 V2000
    3.6117    2.2123   -0.1387 C   0  0  0  0  0  0  0  0  0  0  0  0
    2.1094    2.0631   -0.0333 C   0  0  0  0  0  0  0  0  0  0  0  0
    1.6812    0.7456   -0.4321 O   0  0  0  0  0  0  0  0  0  0  0  0
    2.0216   -0.5487    0.4049 P   0  0  0  0  0  0  0  0  0  0  0  0
    2.2392   -0.2952    2.3390 S   0  0  0  0  0  0  0  0  0  0  0  0
    3.2730   -1.1127   -0.3949 O   0  0  0  0  0  0  0  0  0  0  0  0
    3.9338   -2.3420   -0.0312 C   0  0  0  0  0  0  0  0  0  0  0  0
    5.1019   -2.0769    0.8990 C   0  0  0  0  0  0  0  0  0  0  0  0
    0.4763   -1.8650   -0.1762 S   0  0  0  0  0  0  0  0  0  0  0  0
   -0.6982   -1.4010    1.1318 C   0  0  0  0  0  0  0  0  0  0  0  0
   -1.1951    0.3386    1.0903 S   0  0  0  0  0  0  0  0  0  0  0  0
   -2.1321    0.3739   -0.8405 P   0  0  0  0  0  0  0  0  0  0  0  0
   -0.9646    0.5809   -2.4004 S   0  0  0  0  0  0  0  0  0  0  0  0
   -3.2298    1.5145   -0.6982 O   0  0  0  0  0  0  0  0  0  0  0  0
   -2.9311    2.8907   -0.9863 C   0  0  0  0  0  0  0  0  0  0  0  0
   -1.9918    3.4871    0.0416 C   0  0  0  0  0  0  0  0  0  0  0  0
   -2.9932   -0.9483   -0.8955 O   0  0  0  0  0  0  0  0  0  0  0  0
   -4.3579   -1.0869   -0.4212 C   0  0  0  0  0  0  0  0  0  0  0  0
   -4.4787   -0.9485    1.0820 C   0  0  0  0  0  0  0  0  0  0  0  0
    3.9419    1.9636   -1.1439 H   0  0  0  0  0  0  0  0  0  0  0  0
    3.8909    3.2348    0.0950 H   0  0  0  0  0  0  0  0  0  0  0  0
    4.0963    1.5394    0.5683 H   0  0  0  0  0  0  0  0  0  0  0  0
    1.5847    2.7249   -0.7245 H   0  0  0  0  0  0  0  0  0  0  0  0
    1.7693    2.2425    0.9924 H   0  0  0  0  0  0  0  0  0  0  0  0
    3.2086   -3.0189    0.4305 H   0  0  0  0  0  0  0  0  0  0  0  0
    4.2683   -2.7632   -0.9812 H   0  0  0  0  0  0  0  0  0  0  0  0
    5.7972   -1.3823    0.4360 H   0  0  0  0  0  0  0  0  0  0  0  0
    4.7494   -1.6508    1.8358 H   0  0  0  0  0  0  0  0  0  0  0  0
    5.6122   -3.0121    1.1055 H   0  0  0  0  0  0  0  0  0  0  0  0
   -0.2325   -1.5501    2.1063 H   0  0  0  0  0  0  0  0  0  0  0  0
   -1.5630   -2.0460    1.0000 H   0  0  0  0  0  0  0  0  0  0  0  0
   -2.4931    2.9471   -1.9881 H   0  0  0  0  0  0  0  0  0  0  0  0
   -3.9062    3.3794   -0.9763 H   0  0  0  0  0  0  0  0  0  0  0  0
   -1.8472    4.5419   -0.1679 H   0  0  0  0  0  0  0  0  0  0  0  0
   -2.3961    3.3677    1.0433 H   0  0  0  0  0  0  0  0  0  0  0  0
   -1.0275    2.9811   -0.0062 H   0  0  0  0  0  0  0  0  0  0  0  0
   -4.9702   -0.3396   -0.9282 H   0  0  0  0  0  0  0  0  0  0  0  0
   -4.6349   -2.0867   -0.7592 H   0  0  0  0  0  0  0  0  0  0  0  0
   -4.1579    0.0415    1.3976 H   0  0  0  0  0  0  0  0  0  0  0  0
   -5.5187   -1.0872    1.3616 H   0  0  0  0  0  0  0  0  0  0  0  0
   -3.8759   -1.6950    1.5930 H   0  0  0  0  0  0  0  0  0  0  0  0
  1  2  1  0  0  0  0
  2  3  1  0  0  0  0
  3  4  2  0  0  0  0
  4  5  2  0  0  0  0
  4  6  2  0  0  0  0
  6  7  1  0  0  0  0
  7  8  1  0  0  0  0
  4  9  1  0  0  0  0
  9 10  1  0  0  0  0
 10 11  1  0  0  0  0
 11 12  1  0  0  0  0
 12 13  2  0  0  0  0
 12 14  2  0  0  0  0
 14 15  1  0  0  0  0
 15 16  1  0  0  0  0
 12 17  2  0  0  0  0
 17 18  1  0  0  0  0
 18 19  1  0  0  0  0
  1 20  1  0  0  0  0
  1 21  1  0  0  0  0
  1 22  1  0  0  0  0
  2 23  1  0  0  0  0
  2 24  1  0  0  0  0
  7 25  1  0  0  0  0
  7 26  1  0  0  0  0
  8 27  1  0  0  0  0
  8 28  1  0  0  0  0
  8 29  1  0  0  0  0
 10 30  1  0  0  0  0
 10 31  1  0  0  0  0
 15 32  1  0  0  0  0
 15 33  1  0  0  0  0
 16 34  1  0  0  0  0
 16 35  1  0  0  0  0
 16 36  1  0  0  0  0
 18 37  1  0  0  0  0
 18 38  1  0  0  0  0
 19 39  1  0  0  0  0
 19 40  1  0  0  0  0
 19 41  1  0  0  0  0
M  END
