 xtb: 6.7.1 (edcfbbe)
          04092505203D

 41 40  0     0  0            999 V2000
    3.5918   -1.5076   -2.7343 C   0  0  0  0  0  0  0  0  0  0  0  0
    3.9647   -0.1037   -2.3053 C   0  0  0  0  0  0  0  0  0  0  0  0
    3.6327    0.1543   -0.9283 O   0  0  0  0  0  0  0  0  0  0  0  0
    2.1362    0.1805   -0.3922 P   0  0  0  0  0  0  0  0  0  0  0  0
    0.8606    1.0389   -1.6045 S   0  0  0  0  0  0  0  0  0  0  0  0
    2.2771    0.9772    0.9583 O   0  0  0  0  0  0  0  0  0  0  0  0
    3.2795    0.7170    1.9757 C   0  0  0  0  0  0  0  0  0  0  0  0
    2.6846   -0.0644    3.1308 C   0  0  0  0  0  0  0  0  0  0  0  0
    1.8217   -1.8583    0.1249 S   0  0  0  0  0  0  0  0  0  0  0  0
    0.1712   -1.7577    0.8621 C   0  0  0  0  0  0  0  0  0  0  0  0
   -1.1591   -1.4877   -0.3541 S   0  0  0  0  0  0  0  0  0  0  0  0
   -1.8850    0.3492    0.3578 P   0  0  0  0  0  0  0  0  0  0  0  0
   -0.8650    1.3250    1.7151 S   0  0  0  0  0  0  0  0  0  0  0  0
   -3.2739   -0.2012    0.9409 O   0  0  0  0  0  0  0  0  0  0  0  0
   -4.1757    0.6898    1.6237 C   0  0  0  0  0  0  0  0  0  0  0  0
   -5.3913   -0.1134    2.0378 C   0  0  0  0  0  0  0  0  0  0  0  0
   -2.2576    1.2940   -0.8590 O   0  0  0  0  0  0  0  0  0  0  0  0
   -2.6085    0.8674   -2.1962 C   0  0  0  0  0  0  0  0  0  0  0  0
   -3.7970   -0.0703   -2.2215 C   0  0  0  0  0  0  0  0  0  0  0  0
    3.9768   -1.6896   -3.7325 H   0  0  0  0  0  0  0  0  0  0  0  0
    4.0086   -2.2385   -2.0459 H   0  0  0  0  0  0  0  0  0  0  0  0
    2.5083   -1.6160   -2.7496 H   0  0  0  0  0  0  0  0  0  0  0  0
    3.4524    0.6378   -2.9260 H   0  0  0  0  0  0  0  0  0  0  0  0
    5.0426    0.0593   -2.3438 H   0  0  0  0  0  0  0  0  0  0  0  0
    4.1210    0.1921    1.5204 H   0  0  0  0  0  0  0  0  0  0  0  0
    3.5914    1.7125    2.2953 H   0  0  0  0  0  0  0  0  0  0  0  0
    3.3851   -0.0559    3.9597 H   0  0  0  0  0  0  0  0  0  0  0  0
    1.7538    0.4027    3.4463 H   0  0  0  0  0  0  0  0  0  0  0  0
    2.4888   -1.0947    2.8445 H   0  0  0  0  0  0  0  0  0  0  0  0
    0.1392   -0.9430    1.5914 H   0  0  0  0  0  0  0  0  0  0  0  0
   -0.0005   -2.7226    1.3315 H   0  0  0  0  0  0  0  0  0  0  0  0
   -3.6538    1.1107    2.4897 H   0  0  0  0  0  0  0  0  0  0  0  0
   -4.4419    1.5090    0.9475 H   0  0  0  0  0  0  0  0  0  0  0  0
   -6.0848    0.5349    2.5633 H   0  0  0  0  0  0  0  0  0  0  0  0
   -5.8787   -0.5307    1.1615 H   0  0  0  0  0  0  0  0  0  0  0  0
   -5.0900   -0.9262    2.6919 H   0  0  0  0  0  0  0  0  0  0  0  0
   -2.8201    1.8082   -2.7070 H   0  0  0  0  0  0  0  0  0  0  0  0
   -1.7238    0.4061   -2.6434 H   0  0  0  0  0  0  0  0  0  0  0  0
   -4.0338   -0.3063   -3.2543 H   0  0  0  0  0  0  0  0  0  0  0  0
   -3.5633   -0.9937   -1.6934 H   0  0  0  0  0  0  0  0  0  0  0  0
   -4.6601    0.3980   -1.7544 H   0  0  0  0  0  0  0  0  0  0  0  0
  1  2  1  0  0  0  0
  2  3  1  0  0  0  0
  3  4  2  0  0  0  0
  4  5  2  0  0  0  0
  4  6  2  0  0  0  0
  6  7  1  0  0  0  0
  7  8  1  0  0  0  0
  4  9  1  0  0  0  0
  9 10  1  0  0  0  0
 10 11  1  0  0  0  0
 11 12  1  0  0  0  0
 12 13  2  0  0  0  0
 12 14  1  0  0  0  0
 14 15  1  0  0  0  0
 15 16  1  0  0  0  0
 12 17  2  0  0  0  0
 17 18  1  0  0  0  0
 18 19  1  0  0  0  0
  1 20  1  0  0  0  0
  1 21  1  0  0  0  0
  1 22  1  0  0  0  0
  2 23  1  0  0  0  0
  2 24  1  0  0  0  0
  7 25  1  0  0  0  0
  7 26  1  0  0  0  0
  8 27  1  0  0  0  0
  8 28  1  0  0  0  0
  8 29  1  0  0  0  0
 10 30  1  0  0  0  0
 10 31  1  0  0  0  0
 15 32  1  0  0  0  0
 15 33  1  0  0  0  0
 16 34  1  0  0  0  0
 16 35  1  0  0  0  0
 16 36  1  0  0  0  0
 18 37  1  0  0  0  0
 18 38  1  0  0  0  0
 19 39  1  0  0  0  0
 19 40  1  0  0  0  0
 19 41  1  0  0  0  0
M  END
