 xtb: 6.7.1 (edcfbbe)
          04092505203D

 41 40  0     0  0            999 V2000
    4.4306   -1.8343   -0.7364 C   0  0  0  0  0  0  0  0  0  0  0  0
    4.6251   -0.3524   -0.4869 C   0  0  0  0  0  0  0  0  0  0  0  0
    3.5732    0.2089    0.3154 O   0  0  0  0  0  0  0  0  0  0  0  0
    2.0741    0.3374   -0.2023 P   0  0  0  0  0  0  0  0  0  0  0  0
    1.9102    0.8081   -2.1009 S   0  0  0  0  0  0  0  0  0  0  0  0
    1.4839    1.3443    0.8723 O   0  0  0  0  0  0  0  0  0  0  0  0
    1.5000    2.7719    0.6804 C   0  0  0  0  0  0  0  0  0  0  0  0
    2.9067    3.3267    0.6193 C   0  0  0  0  0  0  0  0  0  0  0  0
    1.1807   -1.4587    0.4514 S   0  0  0  0  0  0  0  0  0  0  0  0
   -0.0171   -1.7550   -0.9027 C   0  0  0  0  0  0  0  0  0  0  0  0
   -1.6761   -2.1366   -0.2975 S   0  0  0  0  0  0  0  0  0  0  0  0
   -2.3482   -0.1897    0.2405 P   0  0  0  0  0  0  0  0  0  0  0  0
   -1.3978    1.3081   -0.6098 S   0  0  0  0  0  0  0  0  0  0  0  0
   -2.4101   -0.1720    1.8224 O   0  0  0  0  0  0  0  0  0  0  0  0
   -1.2374   -0.1562    2.6577 C   0  0  0  0  0  0  0  0  0  0  0  0
   -1.6682    0.2741    4.0452 C   0  0  0  0  0  0  0  0  0  0  0  0
   -3.9104   -0.2234    0.0299 O   0  0  0  0  0  0  0  0  0  0  0  0
   -4.5222    0.1521   -1.2179 C   0  0  0  0  0  0  0  0  0  0  0  0
   -4.2133   -0.8323   -2.3281 C   0  0  0  0  0  0  0  0  0  0  0  0
    4.2745   -2.3592    0.2027 H   0  0  0  0  0  0  0  0  0  0  0  0
    3.5636   -1.9912   -1.3770 H   0  0  0  0  0  0  0  0  0  0  0  0
    5.3101   -2.2326   -1.2321 H   0  0  0  0  0  0  0  0  0  0  0  0
    4.6632    0.1928   -1.4356 H   0  0  0  0  0  0  0  0  0  0  0  0
    5.5282   -0.1561    0.0924 H   0  0  0  0  0  0  0  0  0  0  0  0
    0.9450    2.9999   -0.2361 H   0  0  0  0  0  0  0  0  0  0  0  0
    0.9490    3.1561    1.5404 H   0  0  0  0  0  0  0  0  0  0  0  0
    2.8618    4.4107    0.5837 H   0  0  0  0  0  0  0  0  0  0  0  0
    3.4711    3.0128    1.4935 H   0  0  0  0  0  0  0  0  0  0  0  0
    3.4098    2.9644   -0.2765 H   0  0  0  0  0  0  0  0  0  0  0  0
    0.3034   -2.6335   -1.4561 H   0  0  0  0  0  0  0  0  0  0  0  0
   -0.0403   -0.8688   -1.5423 H   0  0  0  0  0  0  0  0  0  0  0  0
   -0.8055   -1.1620    2.6700 H   0  0  0  0  0  0  0  0  0  0  0  0
   -0.5029    0.5384    2.2347 H   0  0  0  0  0  0  0  0  0  0  0  0
   -2.4149   -0.4153    4.4278 H   0  0  0  0  0  0  0  0  0  0  0  0
   -0.8046    0.2739    4.7020 H   0  0  0  0  0  0  0  0  0  0  0  0
   -2.0964    1.2719    4.0106 H   0  0  0  0  0  0  0  0  0  0  0  0
   -5.5879    0.1759   -0.9860 H   0  0  0  0  0  0  0  0  0  0  0  0
   -4.1788    1.1565   -1.4865 H   0  0  0  0  0  0  0  0  0  0  0  0
   -4.8065   -0.5838   -3.2024 H   0  0  0  0  0  0  0  0  0  0  0  0
   -3.1581   -0.7782   -2.5928 H   0  0  0  0  0  0  0  0  0  0  0  0
   -4.4446   -1.8453   -2.0090 H   0  0  0  0  0  0  0  0  0  0  0  0
  1  2  1  0  0  0  0
  2  3  1  0  0  0  0
  3  4  2  0  0  0  0
  4  5  2  0  0  0  0
  4  6  2  0  0  0  0
  6  7  1  0  0  0  0
  7  8  1  0  0  0  0
  4  9  1  0  0  0  0
  9 10  1  0  0  0  0
 10 11  1  0  0  0  0
 11 12  1  0  0  0  0
 12 13  2  0  0  0  0
 12 14  2  0  0  0  0
 14 15  1  0  0  0  0
 15 16  1  0  0  0  0
 12 17  2  0  0  0  0
 17 18  1  0  0  0  0
 18 19  1  0  0  0  0
  1 20  1  0  0  0  0
  1 21  1  0  0  0  0
  1 22  1  0  0  0  0
  2 23  1  0  0  0  0
  2 24  1  0  0  0  0
  7 25  1  0  0  0  0
  7 26  1  0  0  0  0
  8 27  1  0  0  0  0
  8 28  1  0  0  0  0
  8 29  1  0  0  0  0
 10 30  1  0  0  0  0
 10 31  1  0  0  0  0
 15 32  1  0  0  0  0
 15 33  1  0  0  0  0
 16 34  1  0  0  0  0
 16 35  1  0  0  0  0
 16 36  1  0  0  0  0
 18 37  1  0  0  0  0
 18 38  1  0  0  0  0
 19 39  1  0  0  0  0
 19 40  1  0  0  0  0
 19 41  1  0  0  0  0
M  END
