 xtb: 6.7.1 (edcfbbe)
          04092505213D

 41 40  0     0  0            999 V2000
    4.8423   -1.9438   -0.6967 C   0  0  0  0  0  0  0  0  0  0  0  0
    4.4148   -1.2816    0.5958 C   0  0  0  0  0  0  0  0  0  0  0  0
    3.7001   -0.0479    0.3842 O   0  0  0  0  0  0  0  0  0  0  0  0
    2.4159    0.1214   -0.5365 P   0  0  0  0  0  0  0  0  0  0  0  0
    2.6596    0.2115   -2.4742 S   0  0  0  0  0  0  0  0  0  0  0  0
    1.8277    1.4911   -0.0144 O   0  0  0  0  0  0  0  0  0  0  0  0
    1.5463    1.7721    1.3754 C   0  0  0  0  0  0  0  0  0  0  0  0
    2.6512    2.6089    1.9856 C   0  0  0  0  0  0  0  0  0  0  0  0
    1.1348   -1.4220    0.1805 S   0  0  0  0  0  0  0  0  0  0  0  0
   -0.0625   -1.3547   -1.1722 C   0  0  0  0  0  0  0  0  0  0  0  0
   -0.8138    0.2864   -1.4132 S   0  0  0  0  0  0  0  0  0  0  0  0
   -2.2382    0.2400    0.1535 P   0  0  0  0  0  0  0  0  0  0  0  0
   -3.2362    1.9074    0.3917 S   0  0  0  0  0  0  0  0  0  0  0  0
   -1.3421   -0.2193    1.3715 O   0  0  0  0  0  0  0  0  0  0  0  0
   -1.7577   -0.0140    2.7403 C   0  0  0  0  0  0  0  0  0  0  0  0
   -2.9729   -0.8466    3.0863 C   0  0  0  0  0  0  0  0  0  0  0  0
   -3.0830   -1.0847   -0.1335 O   0  0  0  0  0  0  0  0  0  0  0  0
   -4.1162   -1.1142   -1.1365 C   0  0  0  0  0  0  0  0  0  0  0  0
   -5.4744   -0.8490   -0.5163 C   0  0  0  0  0  0  0  0  0  0  0  0
    5.4467   -2.8165   -0.4714 H   0  0  0  0  0  0  0  0  0  0  0  0
    3.9686   -2.2531   -1.2683 H   0  0  0  0  0  0  0  0  0  0  0  0
    5.4197   -1.2517   -1.3051 H   0  0  0  0  0  0  0  0  0  0  0  0
    5.2773   -0.9786    1.1920 H   0  0  0  0  0  0  0  0  0  0  0  0
    3.7742   -1.9490    1.1788 H   0  0  0  0  0  0  0  0  0  0  0  0
    0.5961    2.3131    1.3624 H   0  0  0  0  0  0  0  0  0  0  0  0
    1.4206    0.8267    1.9119 H   0  0  0  0  0  0  0  0  0  0  0  0
    3.5883    2.0587    1.9716 H   0  0  0  0  0  0  0  0  0  0  0  0
    2.7761    3.5270    1.4181 H   0  0  0  0  0  0  0  0  0  0  0  0
    2.3889    2.8526    3.0103 H   0  0  0  0  0  0  0  0  0  0  0  0
   -0.8333   -2.0871   -0.9462 H   0  0  0  0  0  0  0  0  0  0  0  0
    0.4464   -1.5768   -2.1096 H   0  0  0  0  0  0  0  0  0  0  0  0
   -0.8838   -0.3088    3.3226 H   0  0  0  0  0  0  0  0  0  0  0  0
   -1.9649    1.0511    2.8828 H   0  0  0  0  0  0  0  0  0  0  0  0
   -3.8300   -0.5017    2.5096 H   0  0  0  0  0  0  0  0  0  0  0  0
   -2.7896   -1.8928    2.8565 H   0  0  0  0  0  0  0  0  0  0  0  0
   -3.1929   -0.7401    4.1439 H   0  0  0  0  0  0  0  0  0  0  0  0
   -3.8893   -0.3754   -1.9119 H   0  0  0  0  0  0  0  0  0  0  0  0
   -4.0655   -2.1177   -1.5635 H   0  0  0  0  0  0  0  0  0  0  0  0
   -5.6713   -1.5689    0.2731 H   0  0  0  0  0  0  0  0  0  0  0  0
   -5.5064    0.1544   -0.0971 H   0  0  0  0  0  0  0  0  0  0  0  0
   -6.2396   -0.9358   -1.2808 H   0  0  0  0  0  0  0  0  0  0  0  0
  1  2  1  0  0  0  0
  2  3  1  0  0  0  0
  3  4  2  0  0  0  0
  4  5  2  0  0  0  0
  4  6  2  0  0  0  0
  6  7  1  0  0  0  0
  7  8  1  0  0  0  0
  4  9  1  0  0  0  0
  9 10  1  0  0  0  0
 10 11  1  0  0  0  0
 11 12  1  0  0  0  0
 12 13  2  0  0  0  0
 12 14  2  0  0  0  0
 14 15  1  0  0  0  0
 15 16  1  0  0  0  0
 12 17  1  0  0  0  0
 17 18  1  0  0  0  0
 18 19  1  0  0  0  0
  1 20  1  0  0  0  0
  1 21  1  0  0  0  0
  1 22  1  0  0  0  0
  2 23  1  0  0  0  0
  2 24  1  0  0  0  0
  7 25  1  0  0  0  0
  7 26  1  0  0  0  0
  8 27  1  0  0  0  0
  8 28  1  0  0  0  0
  8 29  1  0  0  0  0
 10 30  1  0  0  0  0
 10 31  1  0  0  0  0
 15 32  1  0  0  0  0
 15 33  1  0  0  0  0
 16 34  1  0  0  0  0
 16 35  1  0  0  0  0
 16 36  1  0  0  0  0
 18 37  1  0  0  0  0
 18 38  1  0  0  0  0
 19 39  1  0  0  0  0
 19 40  1  0  0  0  0
 19 41  1  0  0  0  0
M  END
