 xtb: 6.7.1 (edcfbbe)
          04092505203D

 41 40  0     0  0            999 V2000
    3.5211   -0.4416   -2.4580 C   0  0  0  0  0  0  0  0  0  0  0  0
    2.0620   -0.0544   -2.3654 C   0  0  0  0  0  0  0  0  0  0  0  0
    1.7321    0.6431   -1.1345 O   0  0  0  0  0  0  0  0  0  0  0  0
    2.0289    0.1583    0.3376 P   0  0  0  0  0  0  0  0  0  0  0  0
    1.0099    1.2022    1.6487 S   0  0  0  0  0  0  0  0  0  0  0  0
    3.6049    0.3140    0.4533 O   0  0  0  0  0  0  0  0  0  0  0  0
    4.2861    0.3896    1.7165 C   0  0  0  0  0  0  0  0  0  0  0  0
    4.2064   -0.9094    2.4922 C   0  0  0  0  0  0  0  0  0  0  0  0
    1.7082   -1.9443    0.3532 S   0  0  0  0  0  0  0  0  0  0  0  0
   -0.0830   -1.9218    0.5684 C   0  0  0  0  0  0  0  0  0  0  0  0
   -0.9537   -1.2632   -0.8890 S   0  0  0  0  0  0  0  0  0  0  0  0
   -2.1276    0.2745    0.0026 P   0  0  0  0  0  0  0  0  0  0  0  0
   -2.4407    0.0949    1.9235 S   0  0  0  0  0  0  0  0  0  0  0  0
   -3.3945    0.2886   -0.9611 O   0  0  0  0  0  0  0  0  0  0  0  0
   -4.2434   -0.8399   -1.2422 C   0  0  0  0  0  0  0  0  0  0  0  0
   -5.1079   -1.2256   -0.0591 C   0  0  0  0  0  0  0  0  0  0  0  0
   -1.4695    1.6593   -0.3533 O   0  0  0  0  0  0  0  0  0  0  0  0
   -1.1896    2.0838   -1.7088 C   0  0  0  0  0  0  0  0  0  0  0  0
   -2.2369    3.0701   -2.1819 C   0  0  0  0  0  0  0  0  0  0  0  0
    3.7634   -1.1891   -1.7057 H   0  0  0  0  0  0  0  0  0  0  0  0
    3.7106   -0.8571   -3.4429 H   0  0  0  0  0  0  0  0  0  0  0  0
    4.1536    0.4290   -2.3059 H   0  0  0  0  0  0  0  0  0  0  0  0
    1.4173   -0.9352   -2.4386 H   0  0  0  0  0  0  0  0  0  0  0  0
    1.7878    0.6672   -3.1364 H   0  0  0  0  0  0  0  0  0  0  0  0
    5.3135    0.6330    1.4421 H   0  0  0  0  0  0  0  0  0  0  0  0
    3.8507    1.2099    2.2959 H   0  0  0  0  0  0  0  0  0  0  0  0
    4.5257   -1.7429    1.8718 H   0  0  0  0  0  0  0  0  0  0  0  0
    4.8462   -0.8440    3.3665 H   0  0  0  0  0  0  0  0  0  0  0  0
    3.1827   -1.0849    2.8199 H   0  0  0  0  0  0  0  0  0  0  0  0
   -0.3560   -1.3107    1.4340 H   0  0  0  0  0  0  0  0  0  0  0  0
   -0.3861   -2.9565    0.7070 H   0  0  0  0  0  0  0  0  0  0  0  0
   -4.8524   -0.4982   -2.0813 H   0  0  0  0  0  0  0  0  0  0  0  0
   -3.6171   -1.6783   -1.5594 H   0  0  0  0  0  0  0  0  0  0  0  0
   -5.7859   -2.0192   -0.3560 H   0  0  0  0  0  0  0  0  0  0  0  0
   -4.4909   -1.5731    0.7670 H   0  0  0  0  0  0  0  0  0  0  0  0
   -5.6834   -0.3687    0.2818 H   0  0  0  0  0  0  0  0  0  0  0  0
   -0.1995    2.5421   -1.6532 H   0  0  0  0  0  0  0  0  0  0  0  0
   -1.1504    1.2024   -2.3558 H   0  0  0  0  0  0  0  0  0  0  0  0
   -2.2782    3.9189   -1.5047 H   0  0  0  0  0  0  0  0  0  0  0  0
   -1.9757    3.4155   -3.1772 H   0  0  0  0  0  0  0  0  0  0  0  0
   -3.2142    2.5955   -2.2074 H   0  0  0  0  0  0  0  0  0  0  0  0
  1  2  1  0  0  0  0
  2  3  1  0  0  0  0
  3  4  2  0  0  0  0
  4  5  2  0  0  0  0
  4  6  2  0  0  0  0
  6  7  1  0  0  0  0
  7  8  1  0  0  0  0
  4  9  1  0  0  0  0
  9 10  1  0  0  0  0
 10 11  1  0  0  0  0
 11 12  1  0  0  0  0
 12 13  2  0  0  0  0
 12 14  2  0  0  0  0
 14 15  1  0  0  0  0
 15 16  1  0  0  0  0
 12 17  2  0  0  0  0
 17 18  1  0  0  0  0
 18 19  1  0  0  0  0
  1 20  1  0  0  0  0
  1 21  1  0  0  0  0
  1 22  1  0  0  0  0
  2 23  1  0  0  0  0
  2 24  1  0  0  0  0
  7 25  1  0  0  0  0
  7 26  1  0  0  0  0
  8 27  1  0  0  0  0
  8 28  1  0  0  0  0
  8 29  1  0  0  0  0
 10 30  1  0  0  0  0
 10 31  1  0  0  0  0
 15 32  1  0  0  0  0
 15 33  1  0  0  0  0
 16 34  1  0  0  0  0
 16 35  1  0  0  0  0
 16 36  1  0  0  0  0
 18 37  1  0  0  0  0
 18 38  1  0  0  0  0
 19 39  1  0  0  0  0
 19 40  1  0  0  0  0
 19 41  1  0  0  0  0
M  END
