 xtb: 6.7.1 (edcfbbe)
          04092505213D

 41 40  0     0  0            999 V2000
    3.8608    1.4487   -2.0005 C   0  0  0  0  0  0  0  0  0  0  0  0
    2.5711    0.7018   -2.2643 C   0  0  0  0  0  0  0  0  0  0  0  0
    2.3748   -0.3824   -1.3370 O   0  0  0  0  0  0  0  0  0  0  0  0
    2.1172   -0.1622    0.2097 P   0  0  0  0  0  0  0  0  0  0  0  0
    1.0213    1.3958    0.7053 S   0  0  0  0  0  0  0  0  0  0  0  0
    3.5909   -0.1020    0.7989 O   0  0  0  0  0  0  0  0  0  0  0  0
    3.8744    0.3839    2.1227 C   0  0  0  0  0  0  0  0  0  0  0  0
    3.3189   -0.5307    3.1949 C   0  0  0  0  0  0  0  0  0  0  0  0
    1.5238   -2.1170    0.7205 S   0  0  0  0  0  0  0  0  0  0  0  0
   -0.1635   -2.1758    0.0581 C   0  0  0  0  0  0  0  0  0  0  0  0
   -1.3443   -1.1663    1.0100 S   0  0  0  0  0  0  0  0  0  0  0  0
   -1.9356    0.1756   -0.4997 P   0  0  0  0  0  0  0  0  0  0  0  0
   -0.9093    0.2502   -2.1634 S   0  0  0  0  0  0  0  0  0  0  0  0
   -2.1418    1.6243    0.1076 O   0  0  0  0  0  0  0  0  0  0  0  0
   -2.9904    1.9151    1.2459 C   0  0  0  0  0  0  0  0  0  0  0  0
   -2.2181    1.8436    2.5479 C   0  0  0  0  0  0  0  0  0  0  0  0
   -3.4104   -0.4222   -0.7019 O   0  0  0  0  0  0  0  0  0  0  0  0
   -4.2517    0.0287   -1.7834 C   0  0  0  0  0  0  0  0  0  0  0  0
   -5.4213   -0.9282   -1.8886 C   0  0  0  0  0  0  0  0  0  0  0  0
    4.6950    0.7529   -1.9663 H   0  0  0  0  0  0  0  0  0  0  0  0
    4.0223    2.1729   -2.7928 H   0  0  0  0  0  0  0  0  0  0  0  0
    3.7981    1.9733   -1.0480 H   0  0  0  0  0  0  0  0  0  0  0  0
    2.5725    0.2105   -3.2384 H   0  0  0  0  0  0  0  0  0  0  0  0
    1.7081    1.3731   -2.2029 H   0  0  0  0  0  0  0  0  0  0  0  0
    4.9636    0.4325    2.1553 H   0  0  0  0  0  0  0  0  0  0  0  0
    3.4511    1.3891    2.2188 H   0  0  0  0  0  0  0  0  0  0  0  0
    3.6496   -0.1855    4.1692 H   0  0  0  0  0  0  0  0  0  0  0  0
    2.2299   -0.5171    3.1655 H   0  0  0  0  0  0  0  0  0  0  0  0
    3.6594   -1.5506    3.0352 H   0  0  0  0  0  0  0  0  0  0  0  0
   -0.4718   -3.2147    0.1376 H   0  0  0  0  0  0  0  0  0  0  0  0
   -0.1636   -1.8347   -0.9801 H   0  0  0  0  0  0  0  0  0  0  0  0
   -3.3389    2.9311    1.0509 H   0  0  0  0  0  0  0  0  0  0  0  0
   -3.8351    1.2207    1.2478 H   0  0  0  0  0  0  0  0  0  0  0  0
   -1.2967    2.4147    2.4602 H   0  0  0  0  0  0  0  0  0  0  0  0
   -2.8269    2.2590    3.3446 H   0  0  0  0  0  0  0  0  0  0  0  0
   -1.9645    0.8144    2.7915 H   0  0  0  0  0  0  0  0  0  0  0  0
   -4.5833    1.0491   -1.5681 H   0  0  0  0  0  0  0  0  0  0  0  0
   -3.6566    0.0405   -2.7030 H   0  0  0  0  0  0  0  0  0  0  0  0
   -5.9774   -0.9405   -0.9557 H   0  0  0  0  0  0  0  0  0  0  0  0
   -6.0731   -0.6059   -2.6940 H   0  0  0  0  0  0  0  0  0  0  0  0
   -5.0611   -1.9316   -2.0959 H   0  0  0  0  0  0  0  0  0  0  0  0
  1  2  1  0  0  0  0
  2  3  1  0  0  0  0
  3  4  2  0  0  0  0
  4  5  2  0  0  0  0
  4  6  2  0  0  0  0
  6  7  1  0  0  0  0
  7  8  1  0  0  0  0
  4  9  1  0  0  0  0
  9 10  1  0  0  0  0
 10 11  1  0  0  0  0
 11 12  1  0  0  0  0
 12 13  2  0  0  0  0
 12 14  2  0  0  0  0
 14 15  1  0  0  0  0
 15 16  1  0  0  0  0
 12 17  1  0  0  0  0
 17 18  1  0  0  0  0
 18 19  1  0  0  0  0
  1 20  1  0  0  0  0
  1 21  1  0  0  0  0
  1 22  1  0  0  0  0
  2 23  1  0  0  0  0
  2 24  1  0  0  0  0
  7 25  1  0  0  0  0
  7 26  1  0  0  0  0
  8 27  1  0  0  0  0
  8 28  1  0  0  0  0
  8 29  1  0  0  0  0
 10 30  1  0  0  0  0
 10 31  1  0  0  0  0
 15 32  1  0  0  0  0
 15 33  1  0  0  0  0
 16 34  1  0  0  0  0
 16 35  1  0  0  0  0
 16 36  1  0  0  0  0
 18 37  1  0  0  0  0
 18 38  1  0  0  0  0
 19 39  1  0  0  0  0
 19 40  1  0  0  0  0
 19 41  1  0  0  0  0
M  END
