 xtb: 6.7.1 (edcfbbe)
          04092505203D

 41 40  0     0  0            999 V2000
    4.3218   -0.4689   -2.3793 C   0  0  0  0  0  0  0  0  0  0  0  0
    4.3940   -0.5192   -0.8676 C   0  0  0  0  0  0  0  0  0  0  0  0
    3.5103    0.4206   -0.2293 O   0  0  0  0  0  0  0  0  0  0  0  0
    1.9363    0.5036   -0.4434 P   0  0  0  0  0  0  0  0  0  0  0  0
    1.3342    1.3497   -2.1061 S   0  0  0  0  0  0  0  0  0  0  0  0
    1.5133    1.3745    0.8049 O   0  0  0  0  0  0  0  0  0  0  0  0
    2.2038    1.4089    2.0797 C   0  0  0  0  0  0  0  0  0  0  0  0
    2.3173    0.0518    2.7404 C   0  0  0  0  0  0  0  0  0  0  0  0
    1.2903   -1.5099   -0.1451 S   0  0  0  0  0  0  0  0  0  0  0  0
    0.0489   -1.6383   -1.4545 C   0  0  0  0  0  0  0  0  0  0  0  0
   -1.6442   -1.8811   -0.8460 S   0  0  0  0  0  0  0  0  0  0  0  0
   -1.9118   -0.2271    0.4357 P   0  0  0  0  0  0  0  0  0  0  0  0
   -1.2961   -0.2985    2.2991 S   0  0  0  0  0  0  0  0  0  0  0  0
   -3.4708    0.0757    0.3361 O   0  0  0  0  0  0  0  0  0  0  0  0
   -4.4174   -0.5380    1.2272 C   0  0  0  0  0  0  0  0  0  0  0  0
   -4.5524   -2.0228    0.9618 C   0  0  0  0  0  0  0  0  0  0  0  0
   -1.2728    0.9183   -0.4561 O   0  0  0  0  0  0  0  0  0  0  0  0
   -1.4451    2.3071   -0.0981 C   0  0  0  0  0  0  0  0  0  0  0  0
   -2.5397    2.9345   -0.9342 C   0  0  0  0  0  0  0  0  0  0  0  0
    4.4876    0.5455   -2.7341 H   0  0  0  0  0  0  0  0  0  0  0  0
    5.0797   -1.1244   -2.7959 H   0  0  0  0  0  0  0  0  0  0  0  0
    3.3416   -0.7952   -2.7230 H   0  0  0  0  0  0  0  0  0  0  0  0
    5.3807   -0.2231   -0.5069 H   0  0  0  0  0  0  0  0  0  0  0  0
    4.1504   -1.5209   -0.5023 H   0  0  0  0  0  0  0  0  0  0  0  0
    3.1895    1.8468    1.9108 H   0  0  0  0  0  0  0  0  0  0  0  0
    1.5894    2.0860    2.6753 H   0  0  0  0  0  0  0  0  0  0  0  0
    2.8031    0.1715    3.7037 H   0  0  0  0  0  0  0  0  0  0  0  0
    1.3313   -0.3802    2.8954 H   0  0  0  0  0  0  0  0  0  0  0  0
    2.9071   -0.6275    2.1281 H   0  0  0  0  0  0  0  0  0  0  0  0
    0.2638   -2.5306   -2.0383 H   0  0  0  0  0  0  0  0  0  0  0  0
    0.0971   -0.7354   -2.0711 H   0  0  0  0  0  0  0  0  0  0  0  0
   -4.0913   -0.3575    2.2571 H   0  0  0  0  0  0  0  0  0  0  0  0
   -5.3486   -0.0047    1.0330 H   0  0  0  0  0  0  0  0  0  0  0  0
   -5.3309   -2.4346    1.5958 H   0  0  0  0  0  0  0  0  0  0  0  0
   -4.8006   -2.2003   -0.0814 H   0  0  0  0  0  0  0  0  0  0  0  0
   -3.6106   -2.5245    1.1856 H   0  0  0  0  0  0  0  0  0  0  0  0
   -1.6605    2.3716    0.9736 H   0  0  0  0  0  0  0  0  0  0  0  0
   -0.4769    2.7722   -0.2982 H   0  0  0  0  0  0  0  0  0  0  0  0
   -2.6190    3.9870   -0.6810 H   0  0  0  0  0  0  0  0  0  0  0  0
   -2.2937    2.8355   -1.9882 H   0  0  0  0  0  0  0  0  0  0  0  0
   -3.4897    2.4421   -0.7439 H   0  0  0  0  0  0  0  0  0  0  0  0
  1  2  1  0  0  0  0
  2  3  1  0  0  0  0
  3  4  2  0  0  0  0
  4  5  2  0  0  0  0
  4  6  2  0  0  0  0
  6  7  1  0  0  0  0
  7  8  1  0  0  0  0
  4  9  1  0  0  0  0
  9 10  1  0  0  0  0
 10 11  1  0  0  0  0
 11 12  1  0  0  0  0
 12 13  2  0  0  0  0
 12 14  2  0  0  0  0
 14 15  1  0  0  0  0
 15 16  1  0  0  0  0
 12 17  1  0  0  0  0
 17 18  1  0  0  0  0
 18 19  1  0  0  0  0
  1 20  1  0  0  0  0
  1 21  1  0  0  0  0
  1 22  1  0  0  0  0
  2 23  1  0  0  0  0
  2 24  1  0  0  0  0
  7 25  1  0  0  0  0
  7 26  1  0  0  0  0
  8 27  1  0  0  0  0
  8 28  1  0  0  0  0
  8 29  1  0  0  0  0
 10 30  1  0  0  0  0
 10 31  1  0  0  0  0
 15 32  1  0  0  0  0
 15 33  1  0  0  0  0
 16 34  1  0  0  0  0
 16 35  1  0  0  0  0
 16 36  1  0  0  0  0
 18 37  1  0  0  0  0
 18 38  1  0  0  0  0
 19 39  1  0  0  0  0
 19 40  1  0  0  0  0
 19 41  1  0  0  0  0
M  END
