 xtb: 6.7.1 (edcfbbe)
          04092505213D

 41 40  0     0  0            999 V2000
    4.9612    1.2340   -0.4221 C   0  0  0  0  0  0  0  0  0  0  0  0
    4.3003    0.1961   -1.3043 C   0  0  0  0  0  0  0  0  0  0  0  0
    3.4611   -0.7127   -0.5668 O   0  0  0  0  0  0  0  0  0  0  0  0
    2.2803   -0.2872    0.4057 P   0  0  0  0  0  0  0  0  0  0  0  0
    2.7285    0.3683    2.1918 S   0  0  0  0  0  0  0  0  0  0  0  0
    1.4557   -1.6255    0.5264 O   0  0  0  0  0  0  0  0  0  0  0  0
    1.1538   -2.4964   -0.5902 C   0  0  0  0  0  0  0  0  0  0  0  0
    2.1356   -3.6474   -0.6433 C   0  0  0  0  0  0  0  0  0  0  0  0
    1.1449    1.0603   -0.8076 S   0  0  0  0  0  0  0  0  0  0  0  0
    0.2577    1.8560    0.5502 C   0  0  0  0  0  0  0  0  0  0  0  0
   -0.8790    0.7550    1.4361 S   0  0  0  0  0  0  0  0  0  0  0  0
   -2.2522    0.3493   -0.1352 P   0  0  0  0  0  0  0  0  0  0  0  0
   -1.7677   -0.8667   -1.5996 S   0  0  0  0  0  0  0  0  0  0  0  0
   -2.5711    1.8267   -0.6100 O   0  0  0  0  0  0  0  0  0  0  0  0
   -3.1085    2.1078   -1.9190 C   0  0  0  0  0  0  0  0  0  0  0  0
   -4.5584    1.6840   -2.0154 C   0  0  0  0  0  0  0  0  0  0  0  0
   -3.5762   -0.0437    0.6521 O   0  0  0  0  0  0  0  0  0  0  0  0
   -3.6684   -1.0019    1.7203 C   0  0  0  0  0  0  0  0  0  0  0  0
   -2.9103   -2.2824    1.4360 C   0  0  0  0  0  0  0  0  0  0  0  0
    4.2100    1.8907    0.0143 H   0  0  0  0  0  0  0  0  0  0  0  0
    5.5059    0.7529    0.3867 H   0  0  0  0  0  0  0  0  0  0  0  0
    5.6481    1.8272   -1.0170 H   0  0  0  0  0  0  0  0  0  0  0  0
    5.0385   -0.4587   -1.7707 H   0  0  0  0  0  0  0  0  0  0  0  0
    3.6898    0.6744   -2.0754 H   0  0  0  0  0  0  0  0  0  0  0  0
    0.1365   -2.8479   -0.4065 H   0  0  0  0  0  0  0  0  0  0  0  0
    1.1627   -1.9152   -1.5161 H   0  0  0  0  0  0  0  0  0  0  0  0
    3.1416   -3.2763   -0.8203 H   0  0  0  0  0  0  0  0  0  0  0  0
    2.1221   -4.1886    0.2988 H   0  0  0  0  0  0  0  0  0  0  0  0
    1.8503   -4.3171   -1.4484 H   0  0  0  0  0  0  0  0  0  0  0  0
   -0.2937    2.6918    0.1276 H   0  0  0  0  0  0  0  0  0  0  0  0
    0.9764    2.1868    1.3015 H   0  0  0  0  0  0  0  0  0  0  0  0
   -2.9901    3.1864   -2.0290 H   0  0  0  0  0  0  0  0  0  0  0  0
   -2.5011    1.5862   -2.6659 H   0  0  0  0  0  0  0  0  0  0  0  0
   -4.6306    0.6036   -1.8942 H   0  0  0  0  0  0  0  0  0  0  0  0
   -5.1431    2.1627   -1.2346 H   0  0  0  0  0  0  0  0  0  0  0  0
   -4.9531    1.9604   -2.9879 H   0  0  0  0  0  0  0  0  0  0  0  0
   -3.2931   -0.5271    2.6316 H   0  0  0  0  0  0  0  0  0  0  0  0
   -4.7405   -1.1853    1.8126 H   0  0  0  0  0  0  0  0  0  0  0  0
   -1.8406   -2.0764    1.3789 H   0  0  0  0  0  0  0  0  0  0  0  0
   -3.0870   -2.9926    2.2376 H   0  0  0  0  0  0  0  0  0  0  0  0
   -3.2347   -2.7149    0.4920 H   0  0  0  0  0  0  0  0  0  0  0  0
  1  2  1  0  0  0  0
  2  3  1  0  0  0  0
  3  4  2  0  0  0  0
  4  5  2  0  0  0  0
  4  6  2  0  0  0  0
  6  7  1  0  0  0  0
  7  8  1  0  0  0  0
  4  9  1  0  0  0  0
  9 10  1  0  0  0  0
 10 11  1  0  0  0  0
 11 12  1  0  0  0  0
 12 13  2  0  0  0  0
 12 14  2  0  0  0  0
 14 15  1  0  0  0  0
 15 16  1  0  0  0  0
 12 17  2  0  0  0  0
 17 18  1  0  0  0  0
 18 19  1  0  0  0  0
  1 20  1  0  0  0  0
  1 21  1  0  0  0  0
  1 22  1  0  0  0  0
  2 23  1  0  0  0  0
  2 24  1  0  0  0  0
  7 25  1  0  0  0  0
  7 26  1  0  0  0  0
  8 27  1  0  0  0  0
  8 28  1  0  0  0  0
  8 29  1  0  0  0  0
 10 30  1  0  0  0  0
 10 31  1  0  0  0  0
 15 32  1  0  0  0  0
 15 33  1  0  0  0  0
 16 34  1  0  0  0  0
 16 35  1  0  0  0  0
 16 36  1  0  0  0  0
 18 37  1  0  0  0  0
 18 38  1  0  0  0  0
 19 39  1  0  0  0  0
 19 40  1  0  0  0  0
 19 41  1  0  0  0  0
M  END
