 xtb: 6.7.1 (edcfbbe)
          04092507313D

 38 37  0     0  0            999 V2000
    1.4114   -3.8368    0.2997 C   0  0  0  0  0  0  0  0  0  0  0  0
    2.3983   -2.6846    0.3018 C   0  0  0  0  0  0  0  0  0  0  0  0
    2.0913   -1.8198   -0.8071 O   0  0  0  0  0  0  0  0  0  0  0  0
    2.2231   -0.5173   -0.6806 C   0  0  0  0  0  0  0  0  0  0  0  0
    2.5963    0.0582    0.3201 O   0  0  0  0  0  0  0  0  0  0  0  0
    1.8245    0.2032   -1.9573 C   0  0  0  0  0  0  0  0  0  0  0  0
    0.4685    0.8875   -1.7609 C   0  0  0  0  0  0  0  0  0  0  0  0
    0.2409    1.5069   -2.6329 H   0  0  0  0  0  0  0  0  0  0  0  0
    0.4575    1.7558   -0.5200 C   0  0  0  0  0  0  0  0  0  0  0  0
   -0.3877    1.6293    0.3496 O   0  0  0  0  0  0  0  0  0  0  0  0
    1.4209    2.6260   -0.5132 O   0  0  0  0  0  0  0  0  0  0  0  0
    1.5683    3.4854    0.6382 C   0  0  0  0  0  0  0  0  0  0  0  0
    0.6562    4.6963    0.5357 C   0  0  0  0  0  0  0  0  0  0  0  0
   -0.8977   -0.3134   -1.6550 S   0  0  0  0  0  0  0  0  0  0  0  0
   -1.3774   -0.5723    0.4167 P   0  0  0  0  0  0  0  0  0  0  0  0
   -0.1574   -0.7535    1.9431 S   0  0  0  0  0  0  0  0  0  0  0  0
   -2.7247    0.2631    0.6619 O   0  0  0  0  0  0  0  0  0  0  0  0
   -2.8720    1.4064    1.4995 C   0  0  0  0  0  0  0  0  0  0  0  0
   -2.0178   -2.0323    0.2541 O   0  0  0  0  0  0  0  0  0  0  0  0
   -3.0963   -2.3570   -0.6381 C   0  0  0  0  0  0  0  0  0  0  0  0
    0.4059   -3.4663    0.4904 H   0  0  0  0  0  0  0  0  0  0  0  0
    1.4278   -4.3389   -0.6629 H   0  0  0  0  0  0  0  0  0  0  0  0
    1.6789   -4.5379    1.0828 H   0  0  0  0  0  0  0  0  0  0  0  0
    3.4234   -3.0370    0.1583 H   0  0  0  0  0  0  0  0  0  0  0  0
    2.3378   -2.1043    1.2278 H   0  0  0  0  0  0  0  0  0  0  0  0
    1.7556   -0.5148   -2.7726 H   0  0  0  0  0  0  0  0  0  0  0  0
    2.5731    0.9674   -2.1696 H   0  0  0  0  0  0  0  0  0  0  0  0
    1.3556    2.8981    1.5358 H   0  0  0  0  0  0  0  0  0  0  0  0
    2.6198    3.7706    0.6189 H   0  0  0  0  0  0  0  0  0  0  0  0
    0.8505    5.2339   -0.3880 H   0  0  0  0  0  0  0  0  0  0  0  0
   -0.3864    4.3877    0.5581 H   0  0  0  0  0  0  0  0  0  0  0  0
    0.8442    5.3528    1.3786 H   0  0  0  0  0  0  0  0  0  0  0  0
   -3.8652    1.3297    1.9372 H   0  0  0  0  0  0  0  0  0  0  0  0
   -2.7828    2.3104    0.8994 H   0  0  0  0  0  0  0  0  0  0  0  0
   -2.1106    1.4051    2.2803 H   0  0  0  0  0  0  0  0  0  0  0  0
   -3.9130   -1.6484   -0.5146 H   0  0  0  0  0  0  0  0  0  0  0  0
   -3.4092   -3.3579   -0.3506 H   0  0  0  0  0  0  0  0  0  0  0  0
   -2.7410   -2.3469   -1.6682 H   0  0  0  0  0  0  0  0  0  0  0  0
  1  2  1  0  0  0  0
  2  3  1  0  0  0  0
  3  4  4  0  0  0  0
  4  5  2  0  0  0  0
  4  6  1  0  0  0  0
  6  7  1  0  0  0  0
  7  8  1  0  0  0  0
  7  9  1  0  0  0  0
  9 10  2  0  0  0  0
  9 11  4  0  0  0  0
 11 12  1  0  0  0  0
 12 13  1  0  0  0  0
  7 14  1  0  0  0  0
 14 15  1  0  0  0  0
 15 16  2  0  0  0  0
 15 17  1  0  0  0  0
 17 18  1  0  0  0  0
 15 19  1  0  0  0  0
 19 20  1  0  0  0  0
  1 21  1  0  0  0  0
  1 22  1  0  0  0  0
  1 23  1  0  0  0  0
  2 24  1  0  0  0  0
  2 25  1  0  0  0  0
  6 26  1  0  0  0  0
  6 27  1  0  0  0  0
 12 28  1  0  0  0  0
 12 29  1  0  0  0  0
 13 30  1  0  0  0  0
 13 31  1  0  0  0  0
 13 32  1  0  0  0  0
 18 33  1  0  0  0  0
 18 34  1  0  0  0  0
 18 35  1  0  0  0  0
 20 36  1  0  0  0  0
 20 37  1  0  0  0  0
 20 38  1  0  0  0  0
M  END
