 xtb: 6.7.1 (edcfbbe)
          04092507313D

 38 37  0     0  0            999 V2000
    3.6278   -2.4184    1.5008 C   0  0  0  0  0  0  0  0  0  0  0  0
    2.8509   -2.9503    0.3076 C   0  0  0  0  0  0  0  0  0  0  0  0
    2.7687   -1.9534   -0.7318 O   0  0  0  0  0  0  0  0  0  0  0  0
    1.7998   -1.0761   -0.6871 C   0  0  0  0  0  0  0  0  0  0  0  0
    0.9388   -1.0568    0.1795 O   0  0  0  0  0  0  0  0  0  0  0  0
    1.8394   -0.0958   -1.8290 C   0  0  0  0  0  0  0  0  0  0  0  0
    0.7542    0.9540   -1.6659 C   0  0  0  0  0  0  0  0  0  0  0  0
    0.7344    1.6366   -2.5190 H   0  0  0  0  0  0  0  0  0  0  0  0
    0.8990    1.7714   -0.3918 C   0  0  0  0  0  0  0  0  0  0  0  0
    1.8066    1.6191    0.3972 O   0  0  0  0  0  0  0  0  0  0  0  0
   -0.0522    2.6695   -0.2996 O   0  0  0  0  0  0  0  0  0  0  0  0
   -0.0897    3.5538    0.8370 C   0  0  0  0  0  0  0  0  0  0  0  0
   -0.3776    4.9616    0.3483 C   0  0  0  0  0  0  0  0  0  0  0  0
   -0.9303    0.2253   -1.7222 S   0  0  0  0  0  0  0  0  0  0  0  0
   -1.4187   -0.5297    0.2148 P   0  0  0  0  0  0  0  0  0  0  0  0
   -1.4953   -2.4667    0.5614 S   0  0  0  0  0  0  0  0  0  0  0  0
   -0.8825    0.4530    1.3467 O   0  0  0  0  0  0  0  0  0  0  0  0
   -0.1145    0.0323    2.4744 C   0  0  0  0  0  0  0  0  0  0  0  0
   -2.9220    0.0573    0.2706 O   0  0  0  0  0  0  0  0  0  0  0  0
   -3.9464   -0.4510   -0.5820 C   0  0  0  0  0  0  0  0  0  0  0  0
    3.7031   -3.1950    2.2544 H   0  0  0  0  0  0  0  0  0  0  0  0
    4.6248   -2.1154    1.1935 H   0  0  0  0  0  0  0  0  0  0  0  0
    3.1143   -1.5600    1.9294 H   0  0  0  0  0  0  0  0  0  0  0  0
    1.8365   -3.2412    0.5969 H   0  0  0  0  0  0  0  0  0  0  0  0
    3.3648   -3.7883   -0.1627 H   0  0  0  0  0  0  0  0  0  0  0  0
    1.7010   -0.6391   -2.7651 H   0  0  0  0  0  0  0  0  0  0  0  0
    2.8254    0.3725   -1.8411 H   0  0  0  0  0  0  0  0  0  0  0  0
   -0.8865    3.1873    1.4903 H   0  0  0  0  0  0  0  0  0  0  0  0
    0.8688    3.4884    1.3600 H   0  0  0  0  0  0  0  0  0  0  0  0
    0.4281    5.3138   -0.2897 H   0  0  0  0  0  0  0  0  0  0  0  0
   -1.3053    4.9734   -0.2160 H   0  0  0  0  0  0  0  0  0  0  0  0
   -0.4696    5.6225    1.2038 H   0  0  0  0  0  0  0  0  0  0  0  0
    0.9091    0.3873    2.3488 H   0  0  0  0  0  0  0  0  0  0  0  0
   -0.1228   -1.0556    2.5576 H   0  0  0  0  0  0  0  0  0  0  0  0
   -0.5758    0.4827    3.3508 H   0  0  0  0  0  0  0  0  0  0  0  0
   -3.7575   -0.1570   -1.6157 H   0  0  0  0  0  0  0  0  0  0  0  0
   -4.8732   -0.0114   -0.2220 H   0  0  0  0  0  0  0  0  0  0  0  0
   -3.9874   -1.5400   -0.5096 H   0  0  0  0  0  0  0  0  0  0  0  0
  1  2  1  0  0  0  0
  2  3  1  0  0  0  0
  3  4  4  0  0  0  0
  4  5  2  0  0  0  0
  4  6  1  0  0  0  0
  6  7  1  0  0  0  0
  7  8  1  0  0  0  0
  7  9  1  0  0  0  0
  9 10  2  0  0  0  0
  9 11  4  0  0  0  0
 11 12  1  0  0  0  0
 12 13  1  0  0  0  0
  7 14  1  0  0  0  0
 14 15  1  0  0  0  0
 15 16  2  0  0  0  0
 15 17  1  0  0  0  0
 17 18  1  0  0  0  0
 15 19  1  0  0  0  0
 19 20  1  0  0  0  0
  1 21  1  0  0  0  0
  1 22  1  0  0  0  0
  1 23  1  0  0  0  0
  2 24  1  0  0  0  0
  2 25  1  0  0  0  0
  6 26  1  0  0  0  0
  6 27  1  0  0  0  0
 12 28  1  0  0  0  0
 12 29  1  0  0  0  0
 13 30  1  0  0  0  0
 13 31  1  0  0  0  0
 13 32  1  0  0  0  0
 18 33  1  0  0  0  0
 18 34  1  0  0  0  0
 18 35  1  0  0  0  0
 20 36  1  0  0  0  0
 20 37  1  0  0  0  0
 20 38  1  0  0  0  0
M  END
