 xtb: 6.7.1 (edcfbbe)
          04092505213D

 41 40  0     0  0            999 V2000
    0.7665   -1.4647    3.1701 C   0  0  0  0  0  0  0  0  0  0  0  0
    2.0278   -0.8778    2.5710 C   0  0  0  0  0  0  0  0  0  0  0  0
    1.6631   -0.0126    1.4654 O   0  0  0  0  0  0  0  0  0  0  0  0
    2.4429   -0.0135    0.0920 P   0  0  0  0  0  0  0  0  0  0  0  0
    3.1999   -1.7325   -0.4803 S   0  0  0  0  0  0  0  0  0  0  0  0
    3.5022    1.1463    0.3246 O   0  0  0  0  0  0  0  0  0  0  0  0
    4.6304    1.3664   -0.5469 C   0  0  0  0  0  0  0  0  0  0  0  0
    5.8997    1.3629    0.2827 C   0  0  0  0  0  0  0  0  0  0  0  0
    1.0185    0.8543   -1.2035 S   0  0  0  0  0  0  0  0  0  0  0  0
    0.1440   -0.6913   -1.5816 C   0  0  0  0  0  0  0  0  0  0  0  0
   -0.9645   -1.2017   -0.2533 S   0  0  0  0  0  0  0  0  0  0  0  0
   -2.4188    0.3313   -0.5686 P   0  0  0  0  0  0  0  0  0  0  0  0
   -2.6924    0.8342   -2.4406 S   0  0  0  0  0  0  0  0  0  0  0  0
   -2.0166    1.5752    0.3025 O   0  0  0  0  0  0  0  0  0  0  0  0
   -1.4760    1.5808    1.6470 C   0  0  0  0  0  0  0  0  0  0  0  0
   -2.3552    0.8492    2.6377 C   0  0  0  0  0  0  0  0  0  0  0  0
   -3.7058   -0.2358    0.1651 O   0  0  0  0  0  0  0  0  0  0  0  0
   -4.4825   -1.3053   -0.4119 C   0  0  0  0  0  0  0  0  0  0  0  0
   -5.8270   -1.3306    0.2860 C   0  0  0  0  0  0  0  0  0  0  0  0
    0.1258   -0.6735    3.5467 H   0  0  0  0  0  0  0  0  0  0  0  0
    0.2246   -2.0316    2.4167 H   0  0  0  0  0  0  0  0  0  0  0  0
    1.0394   -2.1253    3.9865 H   0  0  0  0  0  0  0  0  0  0  0  0
    2.6895   -1.6652    2.1952 H   0  0  0  0  0  0  0  0  0  0  0  0
    2.5684   -0.2606    3.2907 H   0  0  0  0  0  0  0  0  0  0  0  0
    4.6585    0.5782   -1.3057 H   0  0  0  0  0  0  0  0  0  0  0  0
    4.4679    2.3318   -1.0300 H   0  0  0  0  0  0  0  0  0  0  0  0
    6.7444    1.5972   -0.3569 H   0  0  0  0  0  0  0  0  0  0  0  0
    5.8288    2.1044    1.0732 H   0  0  0  0  0  0  0  0  0  0  0  0
    6.0511    0.3829    0.7285 H   0  0  0  0  0  0  0  0  0  0  0  0
    0.8702   -1.4916   -1.7281 H   0  0  0  0  0  0  0  0  0  0  0  0
   -0.4402   -0.5083   -2.4844 H   0  0  0  0  0  0  0  0  0  0  0  0
   -0.4719    1.1489    1.6135 H   0  0  0  0  0  0  0  0  0  0  0  0
   -1.4072    2.6455    1.8764 H   0  0  0  0  0  0  0  0  0  0  0  0
   -2.3569   -0.2182    2.4279 H   0  0  0  0  0  0  0  0  0  0  0  0
   -1.9734    1.0163    3.6407 H   0  0  0  0  0  0  0  0  0  0  0  0
   -3.3745    1.2216    2.5778 H   0  0  0  0  0  0  0  0  0  0  0  0
   -4.5900   -1.1190   -1.4857 H   0  0  0  0  0  0  0  0  0  0  0  0
   -3.9366   -2.2409   -0.2644 H   0  0  0  0  0  0  0  0  0  0  0  0
   -6.3406   -0.3847    0.1393 H   0  0  0  0  0  0  0  0  0  0  0  0
   -6.4284   -2.1323   -0.1296 H   0  0  0  0  0  0  0  0  0  0  0  0
   -5.6910   -1.4970    1.3504 H   0  0  0  0  0  0  0  0  0  0  0  0
  1  2  1  0  0  0  0
  2  3  1  0  0  0  0
  3  4  2  0  0  0  0
  4  5  2  0  0  0  0
  4  6  2  0  0  0  0
  6  7  1  0  0  0  0
  7  8  1  0  0  0  0
  4  9  1  0  0  0  0
  9 10  1  0  0  0  0
 10 11  1  0  0  0  0
 11 12  1  0  0  0  0
 12 13  2  0  0  0  0
 12 14  2  0  0  0  0
 14 15  1  0  0  0  0
 15 16  1  0  0  0  0
 12 17  2  0  0  0  0
 17 18  1  0  0  0  0
 18 19  1  0  0  0  0
  1 20  1  0  0  0  0
  1 21  1  0  0  0  0
  1 22  1  0  0  0  0
  2 23  1  0  0  0  0
  2 24  1  0  0  0  0
  7 25  1  0  0  0  0
  7 26  1  0  0  0  0
  8 27  1  0  0  0  0
  8 28  1  0  0  0  0
  8 29  1  0  0  0  0
 10 30  1  0  0  0  0
 10 31  1  0  0  0  0
 15 32  1  0  0  0  0
 15 33  1  0  0  0  0
 16 34  1  0  0  0  0
 16 35  1  0  0  0  0
 16 36  1  0  0  0  0
 18 37  1  0  0  0  0
 18 38  1  0  0  0  0
 19 39  1  0  0  0  0
 19 40  1  0  0  0  0
 19 41  1  0  0  0  0
M  END
