 xtb: 6.7.1 (edcfbbe)
          04032519423D

 20 20  0     0  0            999 V2000
    0.6278    1.6922   -0.0095 C   0  0  0  0  0  0  0  0  0  0  0  0
    1.4055    0.3965   -0.2519 C   0  0  0  0  0  0  0  0  0  0  0  0
    1.6125    0.2892   -1.3287 H   0  0  0  0  0  0  0  0  0  0  0  0
    0.5429   -0.7941    0.1873 C   0  0  0  0  0  0  0  0  0  0  0  0
    0.3729   -0.7251    1.2721 H   0  0  0  0  0  0  0  0  0  0  0  0
   -0.8118   -0.7396   -0.5318 C   0  0  0  0  0  0  0  0  0  0  0  0
   -0.6404   -0.8747   -1.6066 H   0  0  0  0  0  0  0  0  0  0  0  0
   -1.4645    0.6424   -0.2950 C   0  0  0  0  0  0  0  0  0  0  0  0
   -2.3508    0.7618   -0.9403 H   0  0  0  0  0  0  0  0  0  0  0  0
   -0.6183    1.6803   -0.6885 O   0  0  0  0  0  0  0  0  0  0  0  0
   -1.8321    0.7828    1.0480 O   0  0  0  0  0  0  0  0  0  0  0  0
   -1.6209   -1.7613    0.0034 O   0  0  0  0  0  0  0  0  0  0  0  0
    1.2455   -1.9745   -0.1206 O   0  0  0  0  0  0  0  0  0  0  0  0
    2.6056    0.4595    0.4730 O   0  0  0  0  0  0  0  0  0  0  0  0
    1.1738    2.5459   -0.4078 H   0  0  0  0  0  0  0  0  0  0  0  0
    0.4756    1.8254    1.0673 H   0  0  0  0  0  0  0  0  0  0  0  0
   -2.0975   -0.0917    1.3819 H   0  0  0  0  0  0  0  0  0  0  0  0
   -2.3625   -1.9511   -0.5883 H   0  0  0  0  0  0  0  0  0  0  0  0
    0.6966   -2.7352    0.1201 H   0  0  0  0  0  0  0  0  0  0  0  0
    3.0410   -0.4049    0.4130 H   0  0  0  0  0  0  0  0  0  0  0  0
  1  2  1  0  0  0  0
  2  3  1  0  0  0  0
  2  4  1  0  0  0  0
  4  5  1  0  0  0  0
  4  6  1  0  0  0  0
  6  7  1  0  0  0  0
  6  8  1  0  0  0  0
  8  9  1  0  0  0  0
  1 10  1  0  0  0  0
  8 10  1  0  0  0  0
  8 11  1  0  0  0  0
  6 12  1  0  0  0  0
  4 13  1  0  0  0  0
  2 14  1  0  0  0  0
  1 15  1  0  0  0  0
  1 16  1  0  0  0  0
 11 17  1  0  0  0  0
 12 18  1  0  0  0  0
 13 19  1  0  0  0  0
 14 20  1  0  0  0  0
M  END
