 xtb: 6.7.1 (edcfbbe)
          04092505203D

 41 40  0     0  0            999 V2000
    1.4732   -1.0293   -2.8079 C   0  0  0  0  0  0  0  0  0  0  0  0
    2.4933    0.0233   -2.4277 C   0  0  0  0  0  0  0  0  0  0  0  0
    2.2274    0.6117   -1.1322 O   0  0  0  0  0  0  0  0  0  0  0  0
    2.2491   -0.1326    0.2551 P   0  0  0  0  0  0  0  0  0  0  0  0
    2.4285    1.1530    1.7222 S   0  0  0  0  0  0  0  0  0  0  0  0
    3.4568   -1.1440    0.0158 O   0  0  0  0  0  0  0  0  0  0  0  0
    3.7875   -2.2692    0.8498 C   0  0  0  0  0  0  0  0  0  0  0  0
    4.2601   -1.8573    2.2289 C   0  0  0  0  0  0  0  0  0  0  0  0
    0.5882   -1.4564    0.4264 S   0  0  0  0  0  0  0  0  0  0  0  0
   -0.3336   -0.6905    1.7931 C   0  0  0  0  0  0  0  0  0  0  0  0
   -2.0892   -0.4966    1.4147 S   0  0  0  0  0  0  0  0  0  0  0  0
   -1.9040    0.7201   -0.3205 P   0  0  0  0  0  0  0  0  0  0  0  0
   -0.4835    2.0699   -0.2742 S   0  0  0  0  0  0  0  0  0  0  0  0
   -3.3790    1.2913   -0.4766 O   0  0  0  0  0  0  0  0  0  0  0  0
   -3.9009    2.2880    0.4253 C   0  0  0  0  0  0  0  0  0  0  0  0
   -5.1214    2.9072   -0.2249 C   0  0  0  0  0  0  0  0  0  0  0  0
   -1.7962   -0.2303   -1.5693 O   0  0  0  0  0  0  0  0  0  0  0  0
   -2.7666   -1.2813   -1.8481 C   0  0  0  0  0  0  0  0  0  0  0  0
   -2.1344   -2.6442   -1.6553 C   0  0  0  0  0  0  0  0  0  0  0  0
    1.6479   -1.3372   -3.8342 H   0  0  0  0  0  0  0  0  0  0  0  0
    1.5602   -1.8965   -2.1549 H   0  0  0  0  0  0  0  0  0  0  0  0
    0.4681   -0.6209   -2.7211 H   0  0  0  0  0  0  0  0  0  0  0  0
    2.4510    0.8828   -3.0991 H   0  0  0  0  0  0  0  0  0  0  0  0
    3.5037   -0.3901   -2.4131 H   0  0  0  0  0  0  0  0  0  0  0  0
    2.9113   -2.9204    0.9166 H   0  0  0  0  0  0  0  0  0  0  0  0
    4.5807   -2.7724    0.2936 H   0  0  0  0  0  0  0  0  0  0  0  0
    4.5736   -2.7393    2.7780 H   0  0  0  0  0  0  0  0  0  0  0  0
    5.0948   -1.1651    2.1512 H   0  0  0  0  0  0  0  0  0  0  0  0
    3.4587   -1.3624    2.7738 H   0  0  0  0  0  0  0  0  0  0  0  0
    0.1192    0.2827    2.0059 H   0  0  0  0  0  0  0  0  0  0  0  0
   -0.2857   -1.3438    2.6608 H   0  0  0  0  0  0  0  0  0  0  0  0
   -4.1553    1.7948    1.3674 H   0  0  0  0  0  0  0  0  0  0  0  0
   -3.1205    3.0337    0.6100 H   0  0  0  0  0  0  0  0  0  0  0  0
   -5.8659    2.1414   -0.4212 H   0  0  0  0  0  0  0  0  0  0  0  0
   -5.5394    3.6539    0.4422 H   0  0  0  0  0  0  0  0  0  0  0  0
   -4.8444    3.3792   -1.1634 H   0  0  0  0  0  0  0  0  0  0  0  0
   -3.6311   -1.1471   -1.1955 H   0  0  0  0  0  0  0  0  0  0  0  0
   -3.0610   -1.1186   -2.8857 H   0  0  0  0  0  0  0  0  0  0  0  0
   -1.8326   -2.7841   -0.6201 H   0  0  0  0  0  0  0  0  0  0  0  0
   -2.8599   -3.4064   -1.9208 H   0  0  0  0  0  0  0  0  0  0  0  0
   -1.2577   -2.7466   -2.2878 H   0  0  0  0  0  0  0  0  0  0  0  0
  1  2  1  0  0  0  0
  2  3  1  0  0  0  0
  3  4  2  0  0  0  0
  4  5  2  0  0  0  0
  4  6  2  0  0  0  0
  6  7  1  0  0  0  0
  7  8  1  0  0  0  0
  4  9  1  0  0  0  0
  9 10  1  0  0  0  0
 10 11  1  0  0  0  0
 11 12  1  0  0  0  0
 12 13  2  0  0  0  0
 12 14  2  0  0  0  0
 14 15  1  0  0  0  0
 15 16  1  0  0  0  0
 12 17  2  0  0  0  0
 17 18  1  0  0  0  0
 18 19  1  0  0  0  0
  1 20  1  0  0  0  0
  1 21  1  0  0  0  0
  1 22  1  0  0  0  0
  2 23  1  0  0  0  0
  2 24  1  0  0  0  0
  7 25  1  0  0  0  0
  7 26  1  0  0  0  0
  8 27  1  0  0  0  0
  8 28  1  0  0  0  0
  8 29  1  0  0  0  0
 10 30  1  0  0  0  0
 10 31  1  0  0  0  0
 15 32  1  0  0  0  0
 15 33  1  0  0  0  0
 16 34  1  0  0  0  0
 16 35  1  0  0  0  0
 16 36  1  0  0  0  0
 18 37  1  0  0  0  0
 18 38  1  0  0  0  0
 19 39  1  0  0  0  0
 19 40  1  0  0  0  0
 19 41  1  0  0  0  0
M  END
