 xtb: 6.7.1 (edcfbbe)
          04092505203D

 41 40  0     0  0            999 V2000
    4.9022    0.4686   -1.2597 C   0  0  0  0  0  0  0  0  0  0  0  0
    4.5424    0.5926    0.2063 C   0  0  0  0  0  0  0  0  0  0  0  0
    3.3896   -0.1966    0.5473 O   0  0  0  0  0  0  0  0  0  0  0  0
    1.9332    0.1600    0.0180 P   0  0  0  0  0  0  0  0  0  0  0  0
    1.5633    2.0800    0.0252 S   0  0  0  0  0  0  0  0  0  0  0  0
    1.0029   -0.6936    0.9719 O   0  0  0  0  0  0  0  0  0  0  0  0
    1.3683   -2.0355    1.3989 C   0  0  0  0  0  0  0  0  0  0  0  0
    1.9888   -2.0039    2.7791 C   0  0  0  0  0  0  0  0  0  0  0  0
    1.8696   -0.8951   -1.8385 S   0  0  0  0  0  0  0  0  0  0  0  0
    0.0801   -1.1241   -2.0417 C   0  0  0  0  0  0  0  0  0  0  0  0
   -0.8901    0.4010   -1.8738 S   0  0  0  0  0  0  0  0  0  0  0  0
   -1.8615    0.0439   -0.0290 P   0  0  0  0  0  0  0  0  0  0  0  0
   -1.9988   -1.8526    0.4655 S   0  0  0  0  0  0  0  0  0  0  0  0
   -3.2740    0.7440   -0.2390 O   0  0  0  0  0  0  0  0  0  0  0  0
   -4.3105    0.1226   -1.0257 C   0  0  0  0  0  0  0  0  0  0  0  0
   -5.6241    0.7967   -0.6857 C   0  0  0  0  0  0  0  0  0  0  0  0
   -1.1671    1.0466    0.9703 O   0  0  0  0  0  0  0  0  0  0  0  0
   -1.8342    1.7050    2.0699 C   0  0  0  0  0  0  0  0  0  0  0  0
   -2.3381    0.7145    3.0981 C   0  0  0  0  0  0  0  0  0  0  0  0
    5.8371    0.9873   -1.4452 H   0  0  0  0  0  0  0  0  0  0  0  0
    5.0057   -0.5770   -1.5385 H   0  0  0  0  0  0  0  0  0  0  0  0
    4.1217    0.9184   -1.8723 H   0  0  0  0  0  0  0  0  0  0  0  0
    4.3355    1.6357    0.4658 H   0  0  0  0  0  0  0  0  0  0  0  0
    5.3293    0.1967    0.8498 H   0  0  0  0  0  0  0  0  0  0  0  0
    0.4265   -2.5895    1.4002 H   0  0  0  0  0  0  0  0  0  0  0  0
    2.0532   -2.4671    0.6649 H   0  0  0  0  0  0  0  0  0  0  0  0
    1.3085   -1.5320    3.4831 H   0  0  0  0  0  0  0  0  0  0  0  0
    2.1831   -3.0229    3.0988 H   0  0  0  0  0  0  0  0  0  0  0  0
    2.9213   -1.4461    2.7629 H   0  0  0  0  0  0  0  0  0  0  0  0
   -0.2962   -1.8526   -1.3171 H   0  0  0  0  0  0  0  0  0  0  0  0
   -0.0488   -1.4850   -3.0593 H   0  0  0  0  0  0  0  0  0  0  0  0
   -4.0570    0.2492   -2.0814 H   0  0  0  0  0  0  0  0  0  0  0  0
   -4.3332   -0.9465   -0.7883 H   0  0  0  0  0  0  0  0  0  0  0  0
   -6.4124    0.3588   -1.2890 H   0  0  0  0  0  0  0  0  0  0  0  0
   -5.8585    0.6568    0.3659 H   0  0  0  0  0  0  0  0  0  0  0  0
   -5.5600    1.8607   -0.8948 H   0  0  0  0  0  0  0  0  0  0  0  0
   -1.0570    2.3551    2.4764 H   0  0  0  0  0  0  0  0  0  0  0  0
   -2.6496    2.3088    1.6666 H   0  0  0  0  0  0  0  0  0  0  0  0
   -1.5192    0.0942    3.4555 H   0  0  0  0  0  0  0  0  0  0  0  0
   -2.7752    1.2518    3.9338 H   0  0  0  0  0  0  0  0  0  0  0  0
   -3.0937    0.0669    2.6543 H   0  0  0  0  0  0  0  0  0  0  0  0
  1  2  1  0  0  0  0
  2  3  1  0  0  0  0
  3  4  2  0  0  0  0
  4  5  2  0  0  0  0
  4  6  2  0  0  0  0
  6  7  1  0  0  0  0
  7  8  1  0  0  0  0
  4  9  1  0  0  0  0
  9 10  1  0  0  0  0
 10 11  1  0  0  0  0
 11 12  1  0  0  0  0
 12 13  2  0  0  0  0
 12 14  2  0  0  0  0
 14 15  1  0  0  0  0
 15 16  1  0  0  0  0
 12 17  2  0  0  0  0
 17 18  1  0  0  0  0
 18 19  1  0  0  0  0
  1 20  1  0  0  0  0
  1 21  1  0  0  0  0
  1 22  1  0  0  0  0
  2 23  1  0  0  0  0
  2 24  1  0  0  0  0
  7 25  1  0  0  0  0
  7 26  1  0  0  0  0
  8 27  1  0  0  0  0
  8 28  1  0  0  0  0
  8 29  1  0  0  0  0
 10 30  1  0  0  0  0
 10 31  1  0  0  0  0
 15 32  1  0  0  0  0
 15 33  1  0  0  0  0
 16 34  1  0  0  0  0
 16 35  1  0  0  0  0
 16 36  1  0  0  0  0
 18 37  1  0  0  0  0
 18 38  1  0  0  0  0
 19 39  1  0  0  0  0
 19 40  1  0  0  0  0
 19 41  1  0  0  0  0
M  END
