 xtb: 6.7.1 (edcfbbe)
          04092505203D

 41 40  0     0  0            999 V2000
    4.3796    1.0779   -2.1014 C   0  0  0  0  0  0  0  0  0  0  0  0
    4.6207    0.2849   -0.8345 C   0  0  0  0  0  0  0  0  0  0  0  0
    3.6031    0.4979    0.1623 O   0  0  0  0  0  0  0  0  0  0  0  0
    2.0388    0.3147   -0.0573 P   0  0  0  0  0  0  0  0  0  0  0  0
    1.0785    1.7529   -0.9721 S   0  0  0  0  0  0  0  0  0  0  0  0
    1.5406    0.1792    1.4312 O   0  0  0  0  0  0  0  0  0  0  0  0
    2.1049   -0.7771    2.3680 C   0  0  0  0  0  0  0  0  0  0  0  0
    1.0609   -1.0716    3.4246 C   0  0  0  0  0  0  0  0  0  0  0  0
    1.9314   -1.6152   -0.9492 S   0  0  0  0  0  0  0  0  0  0  0  0
    0.1647   -1.6402   -1.3134 C   0  0  0  0  0  0  0  0  0  0  0  0
   -0.8618   -1.7639    0.1877 S   0  0  0  0  0  0  0  0  0  0  0  0
   -1.9810    0.0130    0.0372 P   0  0  0  0  0  0  0  0  0  0  0  0
   -2.2711    0.6567   -1.7986 S   0  0  0  0  0  0  0  0  0  0  0  0
   -1.2126    0.8996    1.0985 O   0  0  0  0  0  0  0  0  0  0  0  0
   -1.7420    2.0706    1.7519 C   0  0  0  0  0  0  0  0  0  0  0  0
   -2.1909    3.1324    0.7702 C   0  0  0  0  0  0  0  0  0  0  0  0
   -3.3285   -0.2891    0.8290 O   0  0  0  0  0  0  0  0  0  0  0  0
   -4.5000   -0.8202    0.1869 C   0  0  0  0  0  0  0  0  0  0  0  0
   -4.3221   -2.2713   -0.2099 C   0  0  0  0  0  0  0  0  0  0  0  0
    5.2152    0.9378   -2.7794 H   0  0  0  0  0  0  0  0  0  0  0  0
    3.4661    0.7402   -2.5891 H   0  0  0  0  0  0  0  0  0  0  0  0
    4.2727    2.1359   -1.8733 H   0  0  0  0  0  0  0  0  0  0  0  0
    5.5374    0.6017   -0.3340 H   0  0  0  0  0  0  0  0  0  0  0  0
    4.6646   -0.7860   -1.0509 H   0  0  0  0  0  0  0  0  0  0  0  0
    2.3837   -1.6829    1.8211 H   0  0  0  0  0  0  0  0  0  0  0  0
    2.9994   -0.3226    2.7977 H   0  0  0  0  0  0  0  0  0  0  0  0
    0.7711   -0.1544    3.9293 H   0  0  0  0  0  0  0  0  0  0  0  0
    0.1786   -1.5131    2.9675 H   0  0  0  0  0  0  0  0  0  0  0  0
    1.4753   -1.7665    4.1477 H   0  0  0  0  0  0  0  0  0  0  0  0
   -0.0032   -2.5299   -1.9149 H   0  0  0  0  0  0  0  0  0  0  0  0
   -0.1208   -0.7351   -1.8579 H   0  0  0  0  0  0  0  0  0  0  0  0
   -2.5658    1.7558    2.3970 H   0  0  0  0  0  0  0  0  0  0  0  0
   -0.9025    2.4202    2.3561 H   0  0  0  0  0  0  0  0  0  0  0  0
   -3.0415    2.7760    0.1901 H   0  0  0  0  0  0  0  0  0  0  0  0
   -2.4782    4.0290    1.3101 H   0  0  0  0  0  0  0  0  0  0  0  0
   -1.3814    3.3699    0.0814 H   0  0  0  0  0  0  0  0  0  0  0  0
   -5.2856   -0.6988    0.9340 H   0  0  0  0  0  0  0  0  0  0  0  0
   -4.7203   -0.2061   -0.6923 H   0  0  0  0  0  0  0  0  0  0  0  0
   -3.5844   -2.3499   -1.0069 H   0  0  0  0  0  0  0  0  0  0  0  0
   -3.9847   -2.8576    0.6409 H   0  0  0  0  0  0  0  0  0  0  0  0
   -5.2689   -2.6630   -0.5675 H   0  0  0  0  0  0  0  0  0  0  0  0
  1  2  1  0  0  0  0
  2  3  1  0  0  0  0
  3  4  2  0  0  0  0
  4  5  2  0  0  0  0
  4  6  2  0  0  0  0
  6  7  1  0  0  0  0
  7  8  1  0  0  0  0
  4  9  1  0  0  0  0
  9 10  1  0  0  0  0
 10 11  1  0  0  0  0
 11 12  1  0  0  0  0
 12 13  2  0  0  0  0
 12 14  2  0  0  0  0
 14 15  1  0  0  0  0
 15 16  1  0  0  0  0
 12 17  2  0  0  0  0
 17 18  1  0  0  0  0
 18 19  1  0  0  0  0
  1 20  1  0  0  0  0
  1 21  1  0  0  0  0
  1 22  1  0  0  0  0
  2 23  1  0  0  0  0
  2 24  1  0  0  0  0
  7 25  1  0  0  0  0
  7 26  1  0  0  0  0
  8 27  1  0  0  0  0
  8 28  1  0  0  0  0
  8 29  1  0  0  0  0
 10 30  1  0  0  0  0
 10 31  1  0  0  0  0
 15 32  1  0  0  0  0
 15 33  1  0  0  0  0
 16 34  1  0  0  0  0
 16 35  1  0  0  0  0
 16 36  1  0  0  0  0
 18 37  1  0  0  0  0
 18 38  1  0  0  0  0
 19 39  1  0  0  0  0
 19 40  1  0  0  0  0
 19 41  1  0  0  0  0
M  END
