 xtb: 6.7.1 (edcfbbe)
          04092507313D

 38 37  0     0  0            999 V2000
    4.0170   -3.0491   -2.5328 C   0  0  0  0  0  0  0  0  0  0  0  0
    3.0099   -3.1636   -1.4054 C   0  0  0  0  0  0  0  0  0  0  0  0
    2.7023   -1.8335   -0.9442 O   0  0  0  0  0  0  0  0  0  0  0  0
    2.0559   -1.7075    0.1953 C   0  0  0  0  0  0  0  0  0  0  0  0
    1.7195   -2.6347    0.8976 O   0  0  0  0  0  0  0  0  0  0  0  0
    1.7695   -0.2516    0.5178 C   0  0  0  0  0  0  0  0  0  0  0  0
    0.9737    0.3837   -0.6232 C   0  0  0  0  0  0  0  0  0  0  0  0
    1.5973    0.4554   -1.5181 H   0  0  0  0  0  0  0  0  0  0  0  0
    0.4554    1.7571   -0.2460 C   0  0  0  0  0  0  0  0  0  0  0  0
   -0.7295    2.0304   -0.2538 O   0  0  0  0  0  0  0  0  0  0  0  0
    1.4086    2.5768    0.0841 O   0  0  0  0  0  0  0  0  0  0  0  0
    1.0333    3.9037    0.5210 C   0  0  0  0  0  0  0  0  0  0  0  0
    2.3023    4.6542    0.8687 C   0  0  0  0  0  0  0  0  0  0  0  0
   -0.4525   -0.6301   -1.1301 S   0  0  0  0  0  0  0  0  0  0  0  0
   -1.8537   -0.1978    0.4264 P   0  0  0  0  0  0  0  0  0  0  0  0
   -1.3292    0.4791    2.1890 S   0  0  0  0  0  0  0  0  0  0  0  0
   -3.1351    0.4572   -0.2669 O   0  0  0  0  0  0  0  0  0  0  0  0
   -3.4840    1.8393   -0.3393 C   0  0  0  0  0  0  0  0  0  0  0  0
   -2.4327   -1.6629    0.6697 O   0  0  0  0  0  0  0  0  0  0  0  0
   -3.0055   -2.4737   -0.3680 C   0  0  0  0  0  0  0  0  0  0  0  0
    4.9224   -2.5660   -2.1779 H   0  0  0  0  0  0  0  0  0  0  0  0
    4.2606   -4.0417   -2.8963 H   0  0  0  0  0  0  0  0  0  0  0  0
    3.5995   -2.4626   -3.3453 H   0  0  0  0  0  0  0  0  0  0  0  0
    3.4000   -3.7411   -0.5616 H   0  0  0  0  0  0  0  0  0  0  0  0
    2.0774   -3.6275   -1.7406 H   0  0  0  0  0  0  0  0  0  0  0  0
    2.7100    0.2880    0.6357 H   0  0  0  0  0  0  0  0  0  0  0  0
    1.2089   -0.2152    1.4545 H   0  0  0  0  0  0  0  0  0  0  0  0
    0.4812    4.3869   -0.2902 H   0  0  0  0  0  0  0  0  0  0  0  0
    0.3671    3.7991    1.3828 H   0  0  0  0  0  0  0  0  0  0  0  0
    2.0452    5.6589    1.1868 H   0  0  0  0  0  0  0  0  0  0  0  0
    2.8266    4.1491    1.6740 H   0  0  0  0  0  0  0  0  0  0  0  0
    2.9538    4.7079    0.0019 H   0  0  0  0  0  0  0  0  0  0  0  0
   -3.0106    2.2933   -1.2074 H   0  0  0  0  0  0  0  0  0  0  0  0
   -3.1649    2.3576    0.5645 H   0  0  0  0  0  0  0  0  0  0  0  0
   -4.5679    1.8586   -0.4306 H   0  0  0  0  0  0  0  0  0  0  0  0
   -3.9270   -2.0190   -0.7271 H   0  0  0  0  0  0  0  0  0  0  0  0
   -3.2031   -3.4353    0.0989 H   0  0  0  0  0  0  0  0  0  0  0  0
   -2.2974   -2.5855   -1.1899 H   0  0  0  0  0  0  0  0  0  0  0  0
  1  2  1  0  0  0  0
  2  3  1  0  0  0  0
  3  4  1  0  0  0  0
  4  5  2  0  0  0  0
  4  6  1  0  0  0  0
  6  7  1  0  0  0  0
  7  8  1  0  0  0  0
  7  9  1  0  0  0  0
  9 10  2  0  0  0  0
  9 11  4  0  0  0  0
 11 12  1  0  0  0  0
 12 13  1  0  0  0  0
  7 14  1  0  0  0  0
 14 15  1  0  0  0  0
 15 16  2  0  0  0  0
 15 17  2  0  0  0  0
 17 18  1  0  0  0  0
 15 19  1  0  0  0  0
 19 20  1  0  0  0  0
  1 21  1  0  0  0  0
  1 22  1  0  0  0  0
  1 23  1  0  0  0  0
  2 24  1  0  0  0  0
  2 25  1  0  0  0  0
  6 26  1  0  0  0  0
  6 27  1  0  0  0  0
 12 28  1  0  0  0  0
 12 29  1  0  0  0  0
 13 30  1  0  0  0  0
 13 31  1  0  0  0  0
 13 32  1  0  0  0  0
 18 33  1  0  0  0  0
 18 34  1  0  0  0  0
 18 35  1  0  0  0  0
 20 36  1  0  0  0  0
 20 37  1  0  0  0  0
 20 38  1  0  0  0  0
M  END
