 xtb: 6.7.1 (edcfbbe)
          04092505203D

 41 40  0     0  0            999 V2000
    3.9607   -1.9132   -2.0929 C   0  0  0  0  0  0  0  0  0  0  0  0
    4.1735   -1.8223   -0.5957 C   0  0  0  0  0  0  0  0  0  0  0  0
    2.9353   -1.6339    0.1110 O   0  0  0  0  0  0  0  0  0  0  0  0
    2.1096   -0.2763    0.0353 P   0  0  0  0  0  0  0  0  0  0  0  0
    3.2301    1.3370   -0.0123 S   0  0  0  0  0  0  0  0  0  0  0  0
    1.1104   -0.4669    1.2496 O   0  0  0  0  0  0  0  0  0  0  0  0
    1.5179   -0.3137    2.6297 C   0  0  0  0  0  0  0  0  0  0  0  0
    1.3783    1.1238    3.0909 C   0  0  0  0  0  0  0  0  0  0  0  0
    0.7552   -0.5366   -1.5620 S   0  0  0  0  0  0  0  0  0  0  0  0
    0.2383    1.1977   -1.6744 C   0  0  0  0  0  0  0  0  0  0  0  0
   -0.6234    1.7793   -0.1962 S   0  0  0  0  0  0  0  0  0  0  0  0
   -2.2688    0.4334   -0.3341 P   0  0  0  0  0  0  0  0  0  0  0  0
   -2.9230    0.0408   -2.1317 S   0  0  0  0  0  0  0  0  0  0  0  0
   -3.3709    1.1403    0.5489 O   0  0  0  0  0  0  0  0  0  0  0  0
   -3.1424    1.8430    1.7927 C   0  0  0  0  0  0  0  0  0  0  0  0
   -2.7739    0.9024    2.9208 C   0  0  0  0  0  0  0  0  0  0  0  0
   -1.8081   -0.8399    0.5107 O   0  0  0  0  0  0  0  0  0  0  0  0
   -1.7704   -2.1831    0.0050 C   0  0  0  0  0  0  0  0  0  0  0  0
   -3.0203   -2.9294    0.4267 C   0  0  0  0  0  0  0  0  0  0  0  0
    3.2150   -2.6698   -2.3237 H   0  0  0  0  0  0  0  0  0  0  0  0
    3.6166   -0.9545   -2.4789 H   0  0  0  0  0  0  0  0  0  0  0  0
    4.8982   -2.1704   -2.5751 H   0  0  0  0  0  0  0  0  0  0  0  0
    4.8415   -0.9899   -0.3518 H   0  0  0  0  0  0  0  0  0  0  0  0
    4.5711   -2.7520   -0.1868 H   0  0  0  0  0  0  0  0  0  0  0  0
    0.8440   -0.9744    3.1785 H   0  0  0  0  0  0  0  0  0  0  0  0
    2.5464   -0.6670    2.7397 H   0  0  0  0  0  0  0  0  0  0  0  0
    2.0747    1.7654    2.5558 H   0  0  0  0  0  0  0  0  0  0  0  0
    0.3700    1.4829    2.9038 H   0  0  0  0  0  0  0  0  0  0  0  0
    1.5902    1.1793    4.1539 H   0  0  0  0  0  0  0  0  0  0  0  0
   -0.4246    1.2650   -2.5367 H   0  0  0  0  0  0  0  0  0  0  0  0
    1.1148    1.8348   -1.7915 H   0  0  0  0  0  0  0  0  0  0  0  0
   -2.3595    2.5891    1.6283 H   0  0  0  0  0  0  0  0  0  0  0  0
   -4.0939    2.3439    1.9788 H   0  0  0  0  0  0  0  0  0  0  0  0
   -2.6596    1.4734    3.8371 H   0  0  0  0  0  0  0  0  0  0  0  0
   -3.5528    0.1569    3.0566 H   0  0  0  0  0  0  0  0  0  0  0  0
   -1.8393    0.3948    2.6938 H   0  0  0  0  0  0  0  0  0  0  0  0
   -1.6855   -2.1579   -1.0863 H   0  0  0  0  0  0  0  0  0  0  0  0
   -0.8665   -2.6247    0.4297 H   0  0  0  0  0  0  0  0  0  0  0  0
   -3.8955   -2.4523   -0.0110 H   0  0  0  0  0  0  0  0  0  0  0  0
   -2.9615   -3.9544    0.0751 H   0  0  0  0  0  0  0  0  0  0  0  0
   -3.1177   -2.9229    1.5086 H   0  0  0  0  0  0  0  0  0  0  0  0
  1  2  1  0  0  0  0
  2  3  1  0  0  0  0
  3  4  2  0  0  0  0
  4  5  2  0  0  0  0
  4  6  2  0  0  0  0
  6  7  1  0  0  0  0
  7  8  1  0  0  0  0
  4  9  1  0  0  0  0
  9 10  1  0  0  0  0
 10 11  1  0  0  0  0
 11 12  1  0  0  0  0
 12 13  2  0  0  0  0
 12 14  2  0  0  0  0
 14 15  1  0  0  0  0
 15 16  1  0  0  0  0
 12 17  2  0  0  0  0
 17 18  1  0  0  0  0
 18 19  1  0  0  0  0
  1 20  1  0  0  0  0
  1 21  1  0  0  0  0
  1 22  1  0  0  0  0
  2 23  1  0  0  0  0
  2 24  1  0  0  0  0
  7 25  1  0  0  0  0
  7 26  1  0  0  0  0
  8 27  1  0  0  0  0
  8 28  1  0  0  0  0
  8 29  1  0  0  0  0
 10 30  1  0  0  0  0
 10 31  1  0  0  0  0
 15 32  1  0  0  0  0
 15 33  1  0  0  0  0
 16 34  1  0  0  0  0
 16 35  1  0  0  0  0
 16 36  1  0  0  0  0
 18 37  1  0  0  0  0
 18 38  1  0  0  0  0
 19 39  1  0  0  0  0
 19 40  1  0  0  0  0
 19 41  1  0  0  0  0
M  END
