 xtb: 6.7.1 (edcfbbe)
          04092505203D

 41 40  0     0  0            999 V2000
    3.5593    0.1677   -2.4259 C   0  0  0  0  0  0  0  0  0  0  0  0
    2.1035    0.4906   -2.1698 C   0  0  0  0  0  0  0  0  0  0  0  0
    1.5053   -0.4363   -1.2438 O   0  0  0  0  0  0  0  0  0  0  0  0
    1.9497   -0.5199    0.2712 P   0  0  0  0  0  0  0  0  0  0  0  0
    2.4946    1.1389    1.1692 S   0  0  0  0  0  0  0  0  0  0  0  0
    3.0552   -1.6617    0.1813 O   0  0  0  0  0  0  0  0  0  0  0  0
    3.7880   -2.1149    1.3366 C   0  0  0  0  0  0  0  0  0  0  0  0
    5.1266   -1.4096    1.4376 C   0  0  0  0  0  0  0  0  0  0  0  0
    0.3578   -1.5730    1.1547 S   0  0  0  0  0  0  0  0  0  0  0  0
   -0.5531   -0.2258    1.9914 C   0  0  0  0  0  0  0  0  0  0  0  0
   -2.2727   -0.1334    1.4645 S   0  0  0  0  0  0  0  0  0  0  0  0
   -1.9274    0.6555   -0.4810 P   0  0  0  0  0  0  0  0  0  0  0  0
   -0.5506    2.0464   -0.5968 S   0  0  0  0  0  0  0  0  0  0  0  0
   -3.3751    1.0559   -0.9880 O   0  0  0  0  0  0  0  0  0  0  0  0
   -4.3459    1.8075   -0.2357 C   0  0  0  0  0  0  0  0  0  0  0  0
   -3.8145    3.1403    0.2480 C   0  0  0  0  0  0  0  0  0  0  0  0
   -1.5390   -0.5278   -1.4447 O   0  0  0  0  0  0  0  0  0  0  0  0
   -2.0883   -1.8706   -1.4695 C   0  0  0  0  0  0  0  0  0  0  0  0
   -3.6005   -1.9104   -1.5009 C   0  0  0  0  0  0  0  0  0  0  0  0
    4.1335    0.3151   -1.5117 H   0  0  0  0  0  0  0  0  0  0  0  0
    3.6631   -0.8659   -2.7457 H   0  0  0  0  0  0  0  0  0  0  0  0
    3.9435    0.8295   -3.1957 H   0  0  0  0  0  0  0  0  0  0  0  0
    1.4925    0.3890   -3.0681 H   0  0  0  0  0  0  0  0  0  0  0  0
    1.9885    1.5034   -1.7685 H   0  0  0  0  0  0  0  0  0  0  0  0
    3.1884   -1.9445    2.2356 H   0  0  0  0  0  0  0  0  0  0  0  0
    3.9131   -3.1879    1.1806 H   0  0  0  0  0  0  0  0  0  0  0  0
    5.6787   -1.8103    2.2814 H   0  0  0  0  0  0  0  0  0  0  0  0
    5.6993   -1.5621    0.5271 H   0  0  0  0  0  0  0  0  0  0  0  0
    4.9777   -0.3422    1.5866 H   0  0  0  0  0  0  0  0  0  0  0  0
   -0.0436    0.7201    1.7841 H   0  0  0  0  0  0  0  0  0  0  0  0
   -0.5698   -0.4402    3.0567 H   0  0  0  0  0  0  0  0  0  0  0  0
   -5.1684    1.9396   -0.9407 H   0  0  0  0  0  0  0  0  0  0  0  0
   -4.6724    1.1936    0.6082 H   0  0  0  0  0  0  0  0  0  0  0  0
   -3.4321    3.7229   -0.5870 H   0  0  0  0  0  0  0  0  0  0  0  0
   -4.6119    3.6910    0.7363 H   0  0  0  0  0  0  0  0  0  0  0  0
   -3.0024    2.9881    0.9576 H   0  0  0  0  0  0  0  0  0  0  0  0
   -1.6557   -2.2925   -2.3780 H   0  0  0  0  0  0  0  0  0  0  0  0
   -1.7002   -2.4068   -0.5984 H   0  0  0  0  0  0  0  0  0  0  0  0
   -4.0125   -1.5502   -0.5606 H   0  0  0  0  0  0  0  0  0  0  0  0
   -3.9781   -1.2960   -2.3140 H   0  0  0  0  0  0  0  0  0  0  0  0
   -3.9164   -2.9384   -1.6512 H   0  0  0  0  0  0  0  0  0  0  0  0
  1  2  1  0  0  0  0
  2  3  1  0  0  0  0
  3  4  2  0  0  0  0
  4  5  2  0  0  0  0
  4  6  2  0  0  0  0
  6  7  1  0  0  0  0
  7  8  1  0  0  0  0
  4  9  1  0  0  0  0
  9 10  1  0  0  0  0
 10 11  1  0  0  0  0
 11 12  1  0  0  0  0
 12 13  2  0  0  0  0
 12 14  2  0  0  0  0
 14 15  1  0  0  0  0
 15 16  1  0  0  0  0
 12 17  2  0  0  0  0
 17 18  1  0  0  0  0
 18 19  1  0  0  0  0
  1 20  1  0  0  0  0
  1 21  1  0  0  0  0
  1 22  1  0  0  0  0
  2 23  1  0  0  0  0
  2 24  1  0  0  0  0
  7 25  1  0  0  0  0
  7 26  1  0  0  0  0
  8 27  1  0  0  0  0
  8 28  1  0  0  0  0
  8 29  1  0  0  0  0
 10 30  1  0  0  0  0
 10 31  1  0  0  0  0
 15 32  1  0  0  0  0
 15 33  1  0  0  0  0
 16 34  1  0  0  0  0
 16 35  1  0  0  0  0
 16 36  1  0  0  0  0
 18 37  1  0  0  0  0
 18 38  1  0  0  0  0
 19 39  1  0  0  0  0
 19 40  1  0  0  0  0
 19 41  1  0  0  0  0
M  END
