 xtb: 6.7.1 (edcfbbe)
          04092505203D

 41 40  0     0  0            999 V2000
    5.5532   -0.9701   -0.6374 C   0  0  0  0  0  0  0  0  0  0  0  0
    4.2277   -0.3444   -1.0215 C   0  0  0  0  0  0  0  0  0  0  0  0
    3.2519   -0.7326   -0.0365 O   0  0  0  0  0  0  0  0  0  0  0  0
    1.8170   -0.0426    0.0236 P   0  0  0  0  0  0  0  0  0  0  0  0
    1.8917    1.9201    0.0528 S   0  0  0  0  0  0  0  0  0  0  0  0
    1.1991   -0.7909    1.2701 O   0  0  0  0  0  0  0  0  0  0  0  0
    1.2669   -0.2565    2.6041 C   0  0  0  0  0  0  0  0  0  0  0  0
    2.6812   -0.2727    3.1449 C   0  0  0  0  0  0  0  0  0  0  0  0
    0.8481   -0.9387   -1.6211 S   0  0  0  0  0  0  0  0  0  0  0  0
   -0.1754    0.4451   -2.2052 C   0  0  0  0  0  0  0  0  0  0  0  0
   -1.9716    0.2006   -2.0318 S   0  0  0  0  0  0  0  0  0  0  0  0
   -2.1668    0.0571    0.0757 P   0  0  0  0  0  0  0  0  0  0  0  0
   -3.9795    0.3381    0.7600 S   0  0  0  0  0  0  0  0  0  0  0  0
   -1.0613    1.0236    0.6899 O   0  0  0  0  0  0  0  0  0  0  0  0
   -1.4296    2.3448    1.1323 C   0  0  0  0  0  0  0  0  0  0  0  0
   -1.6766    3.2859   -0.0292 C   0  0  0  0  0  0  0  0  0  0  0  0
   -1.4467   -1.3022    0.4692 O   0  0  0  0  0  0  0  0  0  0  0  0
   -1.7821   -2.5822   -0.0986 C   0  0  0  0  0  0  0  0  0  0  0  0
   -3.0726   -3.1412    0.4662 C   0  0  0  0  0  0  0  0  0  0  0  0
    6.2985   -0.7095   -1.3816 H   0  0  0  0  0  0  0  0  0  0  0  0
    5.8735   -0.6047    0.3341 H   0  0  0  0  0  0  0  0  0  0  0  0
    5.4520   -2.0504   -0.5910 H   0  0  0  0  0  0  0  0  0  0  0  0
    3.8897   -0.6977   -1.9999 H   0  0  0  0  0  0  0  0  0  0  0  0
    4.2891    0.7490   -1.0388 H   0  0  0  0  0  0  0  0  0  0  0  0
    0.8663    0.7618    2.5916 H   0  0  0  0  0  0  0  0  0  0  0  0
    0.6003   -0.9016    3.1784 H   0  0  0  0  0  0  0  0  0  0  0  0
    3.0959   -1.2751    3.0797 H   0  0  0  0  0  0  0  0  0  0  0  0
    3.3061    0.4053    2.5646 H   0  0  0  0  0  0  0  0  0  0  0  0
    2.6748    0.0518    4.1809 H   0  0  0  0  0  0  0  0  0  0  0  0
   -0.0178    0.5428   -3.2764 H   0  0  0  0  0  0  0  0  0  0  0  0
    0.1352    1.3495   -1.6777 H   0  0  0  0  0  0  0  0  0  0  0  0
   -2.3227    2.2610    1.7592 H   0  0  0  0  0  0  0  0  0  0  0  0
   -0.5806    2.6764    1.7324 H   0  0  0  0  0  0  0  0  0  0  0  0
   -1.9516    4.2613    0.3589 H   0  0  0  0  0  0  0  0  0  0  0  0
   -0.7780    3.3876   -0.6332 H   0  0  0  0  0  0  0  0  0  0  0  0
   -2.4912    2.9092   -0.6473 H   0  0  0  0  0  0  0  0  0  0  0  0
   -1.8425   -2.4862   -1.1881 H   0  0  0  0  0  0  0  0  0  0  0  0
   -0.9268   -3.2099    0.1612 H   0  0  0  0  0  0  0  0  0  0  0  0
   -3.0230   -3.1799    1.5513 H   0  0  0  0  0  0  0  0  0  0  0  0
   -3.9155   -2.5150    0.1808 H   0  0  0  0  0  0  0  0  0  0  0  0
   -3.2267   -4.1423    0.0765 H   0  0  0  0  0  0  0  0  0  0  0  0
  1  2  1  0  0  0  0
  2  3  1  0  0  0  0
  3  4  2  0  0  0  0
  4  5  2  0  0  0  0
  4  6  2  0  0  0  0
  6  7  1  0  0  0  0
  7  8  1  0  0  0  0
  4  9  1  0  0  0  0
  9 10  1  0  0  0  0
 10 11  1  0  0  0  0
 11 12  1  0  0  0  0
 12 13  2  0  0  0  0
 12 14  1  0  0  0  0
 14 15  1  0  0  0  0
 15 16  1  0  0  0  0
 12 17  2  0  0  0  0
 17 18  1  0  0  0  0
 18 19  1  0  0  0  0
  1 20  1  0  0  0  0
  1 21  1  0  0  0  0
  1 22  1  0  0  0  0
  2 23  1  0  0  0  0
  2 24  1  0  0  0  0
  7 25  1  0  0  0  0
  7 26  1  0  0  0  0
  8 27  1  0  0  0  0
  8 28  1  0  0  0  0
  8 29  1  0  0  0  0
 10 30  1  0  0  0  0
 10 31  1  0  0  0  0
 15 32  1  0  0  0  0
 15 33  1  0  0  0  0
 16 34  1  0  0  0  0
 16 35  1  0  0  0  0
 16 36  1  0  0  0  0
 18 37  1  0  0  0  0
 18 38  1  0  0  0  0
 19 39  1  0  0  0  0
 19 40  1  0  0  0  0
 19 41  1  0  0  0  0
M  END
