 xtb: 6.7.1 (edcfbbe)
          04092505203D

 41 40  0     0  0            999 V2000
    4.3960   -1.6790   -0.9592 C   0  0  0  0  0  0  0  0  0  0  0  0
    4.6067   -0.2012   -0.7018 C   0  0  0  0  0  0  0  0  0  0  0  0
    3.5549    0.3794    0.0901 O   0  0  0  0  0  0  0  0  0  0  0  0
    2.0542    0.5030   -0.4304 P   0  0  0  0  0  0  0  0  0  0  0  0
    1.8779    0.9324   -2.3275 S   0  0  0  0  0  0  0  0  0  0  0  0
    1.4759    1.6086    0.5342 O   0  0  0  0  0  0  0  0  0  0  0  0
    1.5717    1.5338    1.9773 C   0  0  0  0  0  0  0  0  0  0  0  0
    2.7308    2.3654    2.4858 C   0  0  0  0  0  0  0  0  0  0  0  0
    1.1975   -1.3369    0.2172 S   0  0  0  0  0  0  0  0  0  0  0  0
   -0.0077   -1.6410   -1.1160 C   0  0  0  0  0  0  0  0  0  0  0  0
   -1.6834   -1.8928   -0.4951 S   0  0  0  0  0  0  0  0  0  0  0  0
   -2.0354    0.0814    0.2106 P   0  0  0  0  0  0  0  0  0  0  0  0
   -1.3958    1.5399   -0.9340 S   0  0  0  0  0  0  0  0  0  0  0  0
   -1.3955    0.1610    1.6507 O   0  0  0  0  0  0  0  0  0  0  0  0
   -1.3911   -0.8850    2.6589 C   0  0  0  0  0  0  0  0  0  0  0  0
   -2.7724   -1.4163    2.9704 C   0  0  0  0  0  0  0  0  0  0  0  0
   -3.5943    0.1183    0.5113 O   0  0  0  0  0  0  0  0  0  0  0  0
   -4.5676    0.4775   -0.4834 C   0  0  0  0  0  0  0  0  0  0  0  0
   -4.6572   -0.5457   -1.5974 C   0  0  0  0  0  0  0  0  0  0  0  0
    5.2808   -2.0852   -1.4386 H   0  0  0  0  0  0  0  0  0  0  0  0
    4.2152   -2.2064   -0.0260 H   0  0  0  0  0  0  0  0  0  0  0  0
    3.5425   -1.8219   -1.6202 H   0  0  0  0  0  0  0  0  0  0  0  0
    4.6653    0.3475   -1.6467 H   0  0  0  0  0  0  0  0  0  0  0  0
    5.5051   -0.0200   -0.1101 H   0  0  0  0  0  0  0  0  0  0  0  0
    0.6132    1.9203    2.3310 H   0  0  0  0  0  0  0  0  0  0  0  0
    1.6767    0.4848    2.2704 H   0  0  0  0  0  0  0  0  0  0  0  0
    2.6314    3.3907    2.1398 H   0  0  0  0  0  0  0  0  0  0  0  0
    2.7266    2.3500    3.5712 H   0  0  0  0  0  0  0  0  0  0  0  0
    3.6719    1.9616    2.1227 H   0  0  0  0  0  0  0  0  0  0  0  0
    0.2685   -2.5630   -1.6212 H   0  0  0  0  0  0  0  0  0  0  0  0
    0.0175   -0.7902   -1.8028 H   0  0  0  0  0  0  0  0  0  0  0  0
   -0.7312   -1.6860    2.3129 H   0  0  0  0  0  0  0  0  0  0  0  0
   -0.9466   -0.3896    3.5235 H   0  0  0  0  0  0  0  0  0  0  0  0
   -3.4401   -0.6009    3.2353 H   0  0  0  0  0  0  0  0  0  0  0  0
   -3.1802   -1.9400    2.1085 H   0  0  0  0  0  0  0  0  0  0  0  0
   -2.7011   -2.1088    3.8035 H   0  0  0  0  0  0  0  0  0  0  0  0
   -5.5000    0.5436    0.0790 H   0  0  0  0  0  0  0  0  0  0  0  0
   -4.3045    1.4609   -0.8858 H   0  0  0  0  0  0  0  0  0  0  0  0
   -3.7436   -0.5316   -2.1900 H   0  0  0  0  0  0  0  0  0  0  0  0
   -4.7960   -1.5427   -1.1873 H   0  0  0  0  0  0  0  0  0  0  0  0
   -5.4950   -0.3003   -2.2421 H   0  0  0  0  0  0  0  0  0  0  0  0
  1  2  1  0  0  0  0
  2  3  1  0  0  0  0
  3  4  2  0  0  0  0
  4  5  2  0  0  0  0
  4  6  2  0  0  0  0
  6  7  1  0  0  0  0
  7  8  1  0  0  0  0
  4  9  1  0  0  0  0
  9 10  1  0  0  0  0
 10 11  1  0  0  0  0
 11 12  1  0  0  0  0
 12 13  2  0  0  0  0
 12 14  2  0  0  0  0
 14 15  1  0  0  0  0
 15 16  1  0  0  0  0
 12 17  2  0  0  0  0
 17 18  1  0  0  0  0
 18 19  1  0  0  0  0
  1 20  1  0  0  0  0
  1 21  1  0  0  0  0
  1 22  1  0  0  0  0
  2 23  1  0  0  0  0
  2 24  1  0  0  0  0
  7 25  1  0  0  0  0
  7 26  1  0  0  0  0
  8 27  1  0  0  0  0
  8 28  1  0  0  0  0
  8 29  1  0  0  0  0
 10 30  1  0  0  0  0
 10 31  1  0  0  0  0
 15 32  1  0  0  0  0
 15 33  1  0  0  0  0
 16 34  1  0  0  0  0
 16 35  1  0  0  0  0
 16 36  1  0  0  0  0
 18 37  1  0  0  0  0
 18 38  1  0  0  0  0
 19 39  1  0  0  0  0
 19 40  1  0  0  0  0
 19 41  1  0  0  0  0
M  END
