 xtb: 6.7.1 (edcfbbe)
          04092505203D

 41 40  0     0  0            999 V2000
    4.2816   -1.1206    1.3951 C   0  0  0  0  0  0  0  0  0  0  0  0
    4.7817   -0.5153    0.1009 C   0  0  0  0  0  0  0  0  0  0  0  0
    3.7731   -0.5090   -0.9406 O   0  0  0  0  0  0  0  0  0  0  0  0
    2.3871    0.2395   -0.8793 P   0  0  0  0  0  0  0  0  0  0  0  0
    1.6970    0.5650   -2.6825 S   0  0  0  0  0  0  0  0  0  0  0  0
    2.7613    1.5222   -0.0188 O   0  0  0  0  0  0  0  0  0  0  0  0
    1.8856    2.6458    0.1813 C   0  0  0  0  0  0  0  0  0  0  0  0
    1.2691    2.6025    1.5653 C   0  0  0  0  0  0  0  0  0  0  0  0
    1.1280   -0.9591    0.3528 S   0  0  0  0  0  0  0  0  0  0  0  0
   -0.0349   -1.5847   -0.9047 C   0  0  0  0  0  0  0  0  0  0  0  0
   -1.6475   -1.9212   -0.1870 S   0  0  0  0  0  0  0  0  0  0  0  0
   -2.1188    0.0821    0.3854 P   0  0  0  0  0  0  0  0  0  0  0  0
   -1.4795    1.5039   -0.8049 S   0  0  0  0  0  0  0  0  0  0  0  0
   -1.5363    0.3302    1.8259 O   0  0  0  0  0  0  0  0  0  0  0  0
   -1.4318   -0.6255    2.9121 C   0  0  0  0  0  0  0  0  0  0  0  0
   -2.7344   -1.3286    3.2250 C   0  0  0  0  0  0  0  0  0  0  0  0
   -3.6817    0.0298    0.6567 O   0  0  0  0  0  0  0  0  0  0  0  0
   -4.6711   -0.5309   -0.2236 C   0  0  0  0  0  0  0  0  0  0  0  0
   -4.6120    0.0474   -1.6222 C   0  0  0  0  0  0  0  0  0  0  0  0
    3.4802   -0.5126    1.8118 H   0  0  0  0  0  0  0  0  0  0  0  0
    3.9049   -2.1260    1.2260 H   0  0  0  0  0  0  0  0  0  0  0  0
    5.1014   -1.1599    2.1057 H   0  0  0  0  0  0  0  0  0  0  0  0
    5.5845   -1.1092   -0.3386 H   0  0  0  0  0  0  0  0  0  0  0  0
    5.1184    0.5118    0.2527 H   0  0  0  0  0  0  0  0  0  0  0  0
    2.5244    3.5229    0.0602 H   0  0  0  0  0  0  0  0  0  0  0  0
    1.1149    2.6526   -0.5964 H   0  0  0  0  0  0  0  0  0  0  0  0
    2.0469    2.5204    2.3191 H   0  0  0  0  0  0  0  0  0  0  0  0
    0.7032    3.5147    1.7252 H   0  0  0  0  0  0  0  0  0  0  0  0
    0.5912    1.7566    1.6549 H   0  0  0  0  0  0  0  0  0  0  0  0
    0.3326   -2.5283   -1.3007 H   0  0  0  0  0  0  0  0  0  0  0  0
   -0.1215   -0.8315   -1.6936 H   0  0  0  0  0  0  0  0  0  0  0  0
   -0.6485   -1.3420    2.6471 H   0  0  0  0  0  0  0  0  0  0  0  0
   -1.0988   -0.0092    3.7486 H   0  0  0  0  0  0  0  0  0  0  0  0
   -2.6020   -1.9252    4.1224 H   0  0  0  0  0  0  0  0  0  0  0  0
   -3.5246   -0.6010    3.3907 H   0  0  0  0  0  0  0  0  0  0  0  0
   -3.0213   -1.9847    2.4059 H   0  0  0  0  0  0  0  0  0  0  0  0
   -4.5304   -1.6151   -0.2488 H   0  0  0  0  0  0  0  0  0  0  0  0
   -5.6164   -0.2896    0.2657 H   0  0  0  0  0  0  0  0  0  0  0  0
   -3.6708   -0.2184   -2.1022 H   0  0  0  0  0  0  0  0  0  0  0  0
   -5.4323   -0.3476   -2.2127 H   0  0  0  0  0  0  0  0  0  0  0  0
   -4.6822    1.1323   -1.5881 H   0  0  0  0  0  0  0  0  0  0  0  0
  1  2  1  0  0  0  0
  2  3  1  0  0  0  0
  3  4  2  0  0  0  0
  4  5  2  0  0  0  0
  4  6  2  0  0  0  0
  6  7  1  0  0  0  0
  7  8  1  0  0  0  0
  4  9  1  0  0  0  0
  9 10  1  0  0  0  0
 10 11  1  0  0  0  0
 11 12  1  0  0  0  0
 12 13  2  0  0  0  0
 12 14  2  0  0  0  0
 14 15  1  0  0  0  0
 15 16  1  0  0  0  0
 12 17  2  0  0  0  0
 17 18  1  0  0  0  0
 18 19  1  0  0  0  0
  1 20  1  0  0  0  0
  1 21  1  0  0  0  0
  1 22  1  0  0  0  0
  2 23  1  0  0  0  0
  2 24  1  0  0  0  0
  7 25  1  0  0  0  0
  7 26  1  0  0  0  0
  8 27  1  0  0  0  0
  8 28  1  0  0  0  0
  8 29  1  0  0  0  0
 10 30  1  0  0  0  0
 10 31  1  0  0  0  0
 15 32  1  0  0  0  0
 15 33  1  0  0  0  0
 16 34  1  0  0  0  0
 16 35  1  0  0  0  0
 16 36  1  0  0  0  0
 18 37  1  0  0  0  0
 18 38  1  0  0  0  0
 19 39  1  0  0  0  0
 19 40  1  0  0  0  0
 19 41  1  0  0  0  0
M  END
