 xtb: 6.7.1 (edcfbbe)
          04092505203D

 41 40  0     0  0            999 V2000
    3.9104    1.0755   -1.7807 C   0  0  0  0  0  0  0  0  0  0  0  0
    2.5330    0.4547   -1.8830 C   0  0  0  0  0  0  0  0  0  0  0  0
    2.3047   -0.4856   -0.8241 O   0  0  0  0  0  0  0  0  0  0  0  0
    1.9649   -0.0191    0.6688 P   0  0  0  0  0  0  0  0  0  0  0  0
    0.9820    1.6693    0.7813 S   0  0  0  0  0  0  0  0  0  0  0  0
    3.3128    0.1200    1.4905 O   0  0  0  0  0  0  0  0  0  0  0  0
    4.1329   -0.9663    1.9819 C   0  0  0  0  0  0  0  0  0  0  0  0
    4.7580   -1.7756    0.8652 C   0  0  0  0  0  0  0  0  0  0  0  0
    1.1303   -1.7985    1.4118 S   0  0  0  0  0  0  0  0  0  0  0  0
   -0.4013   -1.8729    0.4484 C   0  0  0  0  0  0  0  0  0  0  0  0
   -1.6880   -0.7319    1.0363 S   0  0  0  0  0  0  0  0  0  0  0  0
   -2.0378    0.4187   -0.7287 P   0  0  0  0  0  0  0  0  0  0  0  0
   -0.8867   -0.0330   -2.2472 S   0  0  0  0  0  0  0  0  0  0  0  0
   -1.9372    1.9589   -0.4379 O   0  0  0  0  0  0  0  0  0  0  0  0
   -2.8315    2.7418    0.3870 C   0  0  0  0  0  0  0  0  0  0  0  0
   -2.7817    2.3316    1.8433 C   0  0  0  0  0  0  0  0  0  0  0  0
   -3.6115    0.2696   -0.9427 O   0  0  0  0  0  0  0  0  0  0  0  0
   -4.3435   -0.9682   -0.9474 C   0  0  0  0  0  0  0  0  0  0  0  0
   -3.9301   -1.8881   -2.0779 C   0  0  0  0  0  0  0  0  0  0  0  0
    3.9972    1.6183   -0.8395 H   0  0  0  0  0  0  0  0  0  0  0  0
    4.6748    0.3044   -1.8210 H   0  0  0  0  0  0  0  0  0  0  0  0
    4.0534    1.7682   -2.6040 H   0  0  0  0  0  0  0  0  0  0  0  0
    2.4065   -0.1297   -2.7958 H   0  0  0  0  0  0  0  0  0  0  0  0
    1.7553    1.2255   -1.8443 H   0  0  0  0  0  0  0  0  0  0  0  0
    4.8886   -0.4563    2.5817 H   0  0  0  0  0  0  0  0  0  0  0  0
    3.5161   -1.5988    2.6251 H   0  0  0  0  0  0  0  0  0  0  0  0
    5.3874   -2.5465    1.2986 H   0  0  0  0  0  0  0  0  0  0  0  0
    3.9851   -2.2468    0.2619 H   0  0  0  0  0  0  0  0  0  0  0  0
    5.3642   -1.1360    0.2290 H   0  0  0  0  0  0  0  0  0  0  0  0
   -0.7690   -2.8876    0.5777 H   0  0  0  0  0  0  0  0  0  0  0  0
   -0.1895   -1.6509   -0.6023 H   0  0  0  0  0  0  0  0  0  0  0  0
   -2.4626    3.7593    0.2484 H   0  0  0  0  0  0  0  0  0  0  0  0
   -3.8408    2.6486   -0.0192 H   0  0  0  0  0  0  0  0  0  0  0  0
   -3.2052    1.3374    1.9779 H   0  0  0  0  0  0  0  0  0  0  0  0
   -1.7500    2.3245    2.1897 H   0  0  0  0  0  0  0  0  0  0  0  0
   -3.3517    3.0422    2.4334 H   0  0  0  0  0  0  0  0  0  0  0  0
   -4.2036   -1.4555    0.0220 H   0  0  0  0  0  0  0  0  0  0  0  0
   -5.3818   -0.6494   -1.0547 H   0  0  0  0  0  0  0  0  0  0  0  0
   -2.8964   -2.2047   -1.9507 H   0  0  0  0  0  0  0  0  0  0  0  0
   -4.5724   -2.7627   -2.0821 H   0  0  0  0  0  0  0  0  0  0  0  0
   -4.0133   -1.3746   -3.0326 H   0  0  0  0  0  0  0  0  0  0  0  0
  1  2  1  0  0  0  0
  2  3  1  0  0  0  0
  3  4  1  0  0  0  0
  4  5  2  0  0  0  0
  4  6  2  0  0  0  0
  6  7  1  0  0  0  0
  7  8  1  0  0  0  0
  4  9  1  0  0  0  0
  9 10  1  0  0  0  0
 10 11  1  0  0  0  0
 11 12  1  0  0  0  0
 12 13  2  0  0  0  0
 12 14  2  0  0  0  0
 14 15  1  0  0  0  0
 15 16  1  0  0  0  0
 12 17  2  0  0  0  0
 17 18  1  0  0  0  0
 18 19  1  0  0  0  0
  1 20  1  0  0  0  0
  1 21  1  0  0  0  0
  1 22  1  0  0  0  0
  2 23  1  0  0  0  0
  2 24  1  0  0  0  0
  7 25  1  0  0  0  0
  7 26  1  0  0  0  0
  8 27  1  0  0  0  0
  8 28  1  0  0  0  0
  8 29  1  0  0  0  0
 10 30  1  0  0  0  0
 10 31  1  0  0  0  0
 15 32  1  0  0  0  0
 15 33  1  0  0  0  0
 16 34  1  0  0  0  0
 16 35  1  0  0  0  0
 16 36  1  0  0  0  0
 18 37  1  0  0  0  0
 18 38  1  0  0  0  0
 19 39  1  0  0  0  0
 19 40  1  0  0  0  0
 19 41  1  0  0  0  0
M  END
