 xtb: 6.7.1 (edcfbbe)
          04092505203D

 41 40  0     0  0            999 V2000
    5.4739    0.1228   -0.8037 C   0  0  0  0  0  0  0  0  0  0  0  0
    4.5146   -0.7767   -0.0490 C   0  0  0  0  0  0  0  0  0  0  0  0
    3.4324   -0.0022    0.5067 O   0  0  0  0  0  0  0  0  0  0  0  0
    1.9945    0.0534   -0.1726 P   0  0  0  0  0  0  0  0  0  0  0  0
    2.0139    0.1605   -2.1353 S   0  0  0  0  0  0  0  0  0  0  0  0
    1.3007    1.1726    0.7016 O   0  0  0  0  0  0  0  0  0  0  0  0
    1.8503    2.4820    0.9622 C   0  0  0  0  0  0  0  0  0  0  0  0
    2.1793    3.2346   -0.3092 C   0  0  0  0  0  0  0  0  0  0  0  0
    1.0558   -1.6782    0.5750 S   0  0  0  0  0  0  0  0  0  0  0  0
   -0.1629   -2.0132   -0.7418 C   0  0  0  0  0  0  0  0  0  0  0  0
   -1.8681   -1.9411   -0.1548 S   0  0  0  0  0  0  0  0  0  0  0  0
   -2.0065    0.1537    0.1924 P   0  0  0  0  0  0  0  0  0  0  0  0
   -1.2469    1.3239   -1.1807 S   0  0  0  0  0  0  0  0  0  0  0  0
   -1.3731    0.4198    1.6113 O   0  0  0  0  0  0  0  0  0  0  0  0
   -1.4749   -0.4248    2.7857 C   0  0  0  0  0  0  0  0  0  0  0  0
   -2.9043   -0.7314    3.1743 C   0  0  0  0  0  0  0  0  0  0  0  0
   -3.5569    0.3897    0.4508 O   0  0  0  0  0  0  0  0  0  0  0  0
   -4.4887    0.6653   -0.6083 C   0  0  0  0  0  0  0  0  0  0  0  0
   -4.6912   -0.5254   -1.5232 C   0  0  0  0  0  0  0  0  0  0  0  0
    6.3170   -0.4657   -1.1506 H   0  0  0  0  0  0  0  0  0  0  0  0
    4.9728    0.5625   -1.6637 H   0  0  0  0  0  0  0  0  0  0  0  0
    5.8317    0.9183   -0.1562 H   0  0  0  0  0  0  0  0  0  0  0  0
    4.9954   -1.2458    0.8109 H   0  0  0  0  0  0  0  0  0  0  0  0
    4.1068   -1.5470   -0.7088 H   0  0  0  0  0  0  0  0  0  0  0  0
    1.0573    2.9783    1.5248 H   0  0  0  0  0  0  0  0  0  0  0  0
    2.7365    2.3572    1.5888 H   0  0  0  0  0  0  0  0  0  0  0  0
    1.3035    3.2774   -0.9551 H   0  0  0  0  0  0  0  0  0  0  0  0
    2.4954    4.2435   -0.0638 H   0  0  0  0  0  0  0  0  0  0  0  0
    2.9797    2.7292   -0.8486 H   0  0  0  0  0  0  0  0  0  0  0  0
   -0.0075   -3.0302   -1.0924 H   0  0  0  0  0  0  0  0  0  0  0  0
   -0.0069   -1.2899   -1.5479 H   0  0  0  0  0  0  0  0  0  0  0  0
   -0.9143   -1.3449    2.5952 H   0  0  0  0  0  0  0  0  0  0  0  0
   -0.9637    0.1605    3.5516 H   0  0  0  0  0  0  0  0  0  0  0  0
   -3.3785   -1.3496    2.4150 H   0  0  0  0  0  0  0  0  0  0  0  0
   -2.9028   -1.2686    4.1177 H   0  0  0  0  0  0  0  0  0  0  0  0
   -3.4716    0.1891    3.2839 H   0  0  0  0  0  0  0  0  0  0  0  0
   -5.4070    0.9296   -0.0822 H   0  0  0  0  0  0  0  0  0  0  0  0
   -4.1231    1.5274   -1.1754 H   0  0  0  0  0  0  0  0  0  0  0  0
   -4.9338   -1.4125   -0.9439 H   0  0  0  0  0  0  0  0  0  0  0  0
   -5.5009   -0.3118   -2.2135 H   0  0  0  0  0  0  0  0  0  0  0  0
   -3.7841   -0.7154   -2.0947 H   0  0  0  0  0  0  0  0  0  0  0  0
  1  2  1  0  0  0  0
  2  3  1  0  0  0  0
  3  4  2  0  0  0  0
  4  5  2  0  0  0  0
  4  6  2  0  0  0  0
  6  7  1  0  0  0  0
  7  8  1  0  0  0  0
  4  9  1  0  0  0  0
  9 10  1  0  0  0  0
 10 11  1  0  0  0  0
 11 12  1  0  0  0  0
 12 13  2  0  0  0  0
 12 14  2  0  0  0  0
 14 15  1  0  0  0  0
 15 16  1  0  0  0  0
 12 17  2  0  0  0  0
 17 18  1  0  0  0  0
 18 19  1  0  0  0  0
  1 20  1  0  0  0  0
  1 21  1  0  0  0  0
  1 22  1  0  0  0  0
  2 23  1  0  0  0  0
  2 24  1  0  0  0  0
  7 25  1  0  0  0  0
  7 26  1  0  0  0  0
  8 27  1  0  0  0  0
  8 28  1  0  0  0  0
  8 29  1  0  0  0  0
 10 30  1  0  0  0  0
 10 31  1  0  0  0  0
 15 32  1  0  0  0  0
 15 33  1  0  0  0  0
 16 34  1  0  0  0  0
 16 35  1  0  0  0  0
 16 36  1  0  0  0  0
 18 37  1  0  0  0  0
 18 38  1  0  0  0  0
 19 39  1  0  0  0  0
 19 40  1  0  0  0  0
 19 41  1  0  0  0  0
M  END
