 xtb: 6.7.1 (edcfbbe)
          04092507313D

 38 37  0     0  0            999 V2000
    3.9771   -2.7163    0.3985 C   0  0  0  0  0  0  0  0  0  0  0  0
    2.4630   -2.6819    0.2701 C   0  0  0  0  0  0  0  0  0  0  0  0
    2.0604   -1.8756   -0.8535 O   0  0  0  0  0  0  0  0  0  0  0  0
    1.9657   -0.5743   -0.7012 C   0  0  0  0  0  0  0  0  0  0  0  0
    2.1627    0.0289    0.3340 O   0  0  0  0  0  0  0  0  0  0  0  0
    1.5659    0.1242   -1.9876 C   0  0  0  0  0  0  0  0  0  0  0  0
    0.3085    0.9656   -1.7538 C   0  0  0  0  0  0  0  0  0  0  0  0
    0.1611    1.6520   -2.5907 H   0  0  0  0  0  0  0  0  0  0  0  0
    0.4033    1.7617   -0.4656 C   0  0  0  0  0  0  0  0  0  0  0  0
   -0.3629    1.5636    0.4653 O   0  0  0  0  0  0  0  0  0  0  0  0
    1.3081    2.6867   -0.5198 O   0  0  0  0  0  0  0  0  0  0  0  0
    1.5719    3.5053    0.6440 C   0  0  0  0  0  0  0  0  0  0  0  0
    2.9367    3.1536    1.2090 C   0  0  0  0  0  0  0  0  0  0  0  0
   -1.2006   -0.0604   -1.6921 S   0  0  0  0  0  0  0  0  0  0  0  0
   -1.6480   -0.4129    0.3502 P   0  0  0  0  0  0  0  0  0  0  0  0
   -0.5141   -1.0728    1.8040 S   0  0  0  0  0  0  0  0  0  0  0  0
   -2.7414    0.6240    0.8951 O   0  0  0  0  0  0  0  0  0  0  0  0
   -3.7729    1.1545    0.0475 C   0  0  0  0  0  0  0  0  0  0  0  0
   -2.5841   -1.6407   -0.1904 O   0  0  0  0  0  0  0  0  0  0  0  0
   -3.2799   -2.4930    0.7154 C   0  0  0  0  0  0  0  0  0  0  0  0
    4.2491   -3.3875    1.2062 H   0  0  0  0  0  0  0  0  0  0  0  0
    4.4227   -3.0673   -0.5282 H   0  0  0  0  0  0  0  0  0  0  0  0
    4.3558   -1.7223    0.6248 H   0  0  0  0  0  0  0  0  0  0  0  0
    1.9967   -2.2790    1.1748 H   0  0  0  0  0  0  0  0  0  0  0  0
    2.0563   -3.6691    0.0511 H   0  0  0  0  0  0  0  0  0  0  0  0
    1.3856   -0.6117   -2.7691 H   0  0  0  0  0  0  0  0  0  0  0  0
    2.3840    0.7879   -2.2744 H   0  0  0  0  0  0  0  0  0  0  0  0
    1.5416    4.5338    0.2802 H   0  0  0  0  0  0  0  0  0  0  0  0
    0.7822    3.3354    1.3798 H   0  0  0  0  0  0  0  0  0  0  0  0
    2.9606    2.0999    1.4782 H   0  0  0  0  0  0  0  0  0  0  0  0
    3.7098    3.3466    0.4715 H   0  0  0  0  0  0  0  0  0  0  0  0
    3.1234    3.7523    2.0941 H   0  0  0  0  0  0  0  0  0  0  0  0
   -4.0802    0.4154   -0.6941 H   0  0  0  0  0  0  0  0  0  0  0  0
   -3.4036    2.0500   -0.4515 H   0  0  0  0  0  0  0  0  0  0  0  0
   -4.5984    1.4020    0.7108 H   0  0  0  0  0  0  0  0  0  0  0  0
   -2.5865   -2.8947    1.4573 H   0  0  0  0  0  0  0  0  0  0  0  0
   -3.6936   -3.2930    0.1065 H   0  0  0  0  0  0  0  0  0  0  0  0
   -4.0745   -1.9451    1.2243 H   0  0  0  0  0  0  0  0  0  0  0  0
  1  2  1  0  0  0  0
  2  3  1  0  0  0  0
  3  4  4  0  0  0  0
  4  5  2  0  0  0  0
  4  6  1  0  0  0  0
  6  7  1  0  0  0  0
  7  8  1  0  0  0  0
  7  9  1  0  0  0  0
  9 10  2  0  0  0  0
  9 11  4  0  0  0  0
 11 12  1  0  0  0  0
 12 13  1  0  0  0  0
  7 14  1  0  0  0  0
 14 15  1  0  0  0  0
 15 16  2  0  0  0  0
 15 17  1  0  0  0  0
 17 18  1  0  0  0  0
 15 19  1  0  0  0  0
 19 20  1  0  0  0  0
  1 21  1  0  0  0  0
  1 22  1  0  0  0  0
  1 23  1  0  0  0  0
  2 24  1  0  0  0  0
  2 25  1  0  0  0  0
  6 26  1  0  0  0  0
  6 27  1  0  0  0  0
 12 28  1  0  0  0  0
 12 29  1  0  0  0  0
 13 30  1  0  0  0  0
 13 31  1  0  0  0  0
 13 32  1  0  0  0  0
 18 33  1  0  0  0  0
 18 34  1  0  0  0  0
 18 35  1  0  0  0  0
 20 36  1  0  0  0  0
 20 37  1  0  0  0  0
 20 38  1  0  0  0  0
M  END
