 xtb: 6.7.1 (edcfbbe)
          04092505213D

 41 40  0     0  0            999 V2000
    4.0596   -2.5668   -1.7145 C   0  0  0  0  0  0  0  0  0  0  0  0
    4.3108   -1.1337   -1.2901 C   0  0  0  0  0  0  0  0  0  0  0  0
    3.2104   -0.2875   -1.7176 O   0  0  0  0  0  0  0  0  0  0  0  0
    2.1661    0.3552   -0.7279 P   0  0  0  0  0  0  0  0  0  0  0  0
    0.8646    1.3883   -1.7619 S   0  0  0  0  0  0  0  0  0  0  0  0
    3.1295    1.1475    0.2523 O   0  0  0  0  0  0  0  0  0  0  0  0
    2.7305    1.9926    1.3471 C   0  0  0  0  0  0  0  0  0  0  0  0
    2.7697    1.2339    2.6585 C   0  0  0  0  0  0  0  0  0  0  0  0
    1.4028   -1.2672    0.4202 S   0  0  0  0  0  0  0  0  0  0  0  0
    0.0231   -1.7062   -0.6844 C   0  0  0  0  0  0  0  0  0  0  0  0
   -1.5729   -1.8269    0.1629 S   0  0  0  0  0  0  0  0  0  0  0  0
   -2.0115    0.2321    0.4940 P   0  0  0  0  0  0  0  0  0  0  0  0
   -0.7408    1.2620    1.5634 S   0  0  0  0  0  0  0  0  0  0  0  0
   -3.4636    0.1218    1.1307 O   0  0  0  0  0  0  0  0  0  0  0  0
   -3.6579   -0.3496    2.4807 C   0  0  0  0  0  0  0  0  0  0  0  0
   -5.0226    0.1163    2.9454 C   0  0  0  0  0  0  0  0  0  0  0  0
   -2.2991    0.9089   -0.8935 O   0  0  0  0  0  0  0  0  0  0  0  0
   -3.3177    0.4868   -1.8371 C   0  0  0  0  0  0  0  0  0  0  0  0
   -2.7117   -0.3529   -2.9444 C   0  0  0  0  0  0  0  0  0  0  0  0
    3.2179   -2.9843   -1.1678 H   0  0  0  0  0  0  0  0  0  0  0  0
    3.8468   -2.6059   -2.7791 H   0  0  0  0  0  0  0  0  0  0  0  0
    4.9455   -3.1575   -1.5043 H   0  0  0  0  0  0  0  0  0  0  0  0
    5.1894   -0.7189   -1.7861 H   0  0  0  0  0  0  0  0  0  0  0  0
    4.4277   -1.0517   -0.2078 H   0  0  0  0  0  0  0  0  0  0  0  0
    3.4569    2.8075    1.3374 H   0  0  0  0  0  0  0  0  0  0  0  0
    1.7312    2.3934    1.1559 H   0  0  0  0  0  0  0  0  0  0  0  0
    2.0064    0.4593    2.6713 H   0  0  0  0  0  0  0  0  0  0  0  0
    3.7462    0.7797    2.8003 H   0  0  0  0  0  0  0  0  0  0  0  0
    2.5700    1.9267    3.4692 H   0  0  0  0  0  0  0  0  0  0  0  0
    0.2063   -2.6956   -1.0952 H   0  0  0  0  0  0  0  0  0  0  0  0
   -0.0360   -0.9474   -1.4692 H   0  0  0  0  0  0  0  0  0  0  0  0
   -3.5877   -1.4403    2.4704 H   0  0  0  0  0  0  0  0  0  0  0  0
   -2.8591    0.0572    3.1097 H   0  0  0  0  0  0  0  0  0  0  0  0
   -5.7941   -0.2796    2.2916 H   0  0  0  0  0  0  0  0  0  0  0  0
   -5.1920   -0.2365    3.9573 H   0  0  0  0  0  0  0  0  0  0  0  0
   -5.0709    1.2016    2.9308 H   0  0  0  0  0  0  0  0  0  0  0  0
   -4.0997   -0.0525   -1.3002 H   0  0  0  0  0  0  0  0  0  0  0  0
   -3.7142    1.4251   -2.2278 H   0  0  0  0  0  0  0  0  0  0  0  0
   -1.8328    0.1489   -3.3440 H   0  0  0  0  0  0  0  0  0  0  0  0
   -2.4263   -1.3353   -2.5762 H   0  0  0  0  0  0  0  0  0  0  0  0
   -3.4432   -0.4730   -3.7371 H   0  0  0  0  0  0  0  0  0  0  0  0
  1  2  1  0  0  0  0
  2  3  1  0  0  0  0
  3  4  2  0  0  0  0
  4  5  2  0  0  0  0
  4  6  2  0  0  0  0
  6  7  1  0  0  0  0
  7  8  1  0  0  0  0
  4  9  1  0  0  0  0
  9 10  1  0  0  0  0
 10 11  1  0  0  0  0
 11 12  1  0  0  0  0
 12 13  2  0  0  0  0
 12 14  2  0  0  0  0
 14 15  1  0  0  0  0
 15 16  1  0  0  0  0
 12 17  2  0  0  0  0
 17 18  1  0  0  0  0
 18 19  1  0  0  0  0
  1 20  1  0  0  0  0
  1 21  1  0  0  0  0
  1 22  1  0  0  0  0
  2 23  1  0  0  0  0
  2 24  1  0  0  0  0
  7 25  1  0  0  0  0
  7 26  1  0  0  0  0
  8 27  1  0  0  0  0
  8 28  1  0  0  0  0
  8 29  1  0  0  0  0
 10 30  1  0  0  0  0
 10 31  1  0  0  0  0
 15 32  1  0  0  0  0
 15 33  1  0  0  0  0
 16 34  1  0  0  0  0
 16 35  1  0  0  0  0
 16 36  1  0  0  0  0
 18 37  1  0  0  0  0
 18 38  1  0  0  0  0
 19 39  1  0  0  0  0
 19 40  1  0  0  0  0
 19 41  1  0  0  0  0
M  END
