 xtb: 6.7.1 (edcfbbe)
          04032520273D

  8  7  0     0  0            999 V2000
   -0.0001    0.0000   -1.8431 C   0  0  0  0  0  0  0  0  0  0  0  0
   -0.0000    0.0000   -0.3394 C   0  0  0  0  0  0  0  0  0  0  0  0
   -1.6078    0.4324    0.3092 Cl  0  0  0  0  0  0  0  0  0  0  0  0
    0.4294   -1.6086    0.3091 Cl  0  0  0  0  0  0  0  0  0  0  0  0
    1.1784    1.1762    0.3091 Cl  0  0  0  0  0  0  0  0  0  0  0  0
   -0.2644    0.9900   -2.2058 H   0  0  0  0  0  0  0  0  0  0  0  0
    0.9893   -0.2662   -2.2058 H   0  0  0  0  0  0  0  0  0  0  0  0
   -0.7254   -0.7238   -2.2056 H   0  0  0  0  0  0  0  0  0  0  0  0
  1  2  1  0  0  0  0
  2  3  1  0  0  0  0
  2  4  1  0  0  0  0
  2  5  1  0  0  0  0
  1  6  1  0  0  0  0
  1  7  1  0  0  0  0
  1  8  1  0  0  0  0
M  END
