 xtb: 6.7.1 (edcfbbe)
          04092505213D

 41 40  0     0  0            999 V2000
    4.2495   -0.5119   -2.0144 C   0  0  0  0  0  0  0  0  0  0  0  0
    2.8384   -0.0582   -2.3200 C   0  0  0  0  0  0  0  0  0  0  0  0
    2.2127    0.6693   -1.2347 O   0  0  0  0  0  0  0  0  0  0  0  0
    2.0657    0.2361    0.2710 P   0  0  0  0  0  0  0  0  0  0  0  0
    0.7862    1.4368    1.1420 S   0  0  0  0  0  0  0  0  0  0  0  0
    3.5520    0.3252    0.8180 O   0  0  0  0  0  0  0  0  0  0  0  0
    4.0470   -0.3167    2.0084 C   0  0  0  0  0  0  0  0  0  0  0  0
    3.1953   -0.0403    3.2292 C   0  0  0  0  0  0  0  0  0  0  0  0
    1.6883   -1.8584    0.3152 S   0  0  0  0  0  0  0  0  0  0  0  0
    0.0321   -1.9258   -0.4114 C   0  0  0  0  0  0  0  0  0  0  0  0
   -1.2995   -1.3322    0.6783 S   0  0  0  0  0  0  0  0  0  0  0  0
   -2.0357    0.2922   -0.4938 P   0  0  0  0  0  0  0  0  0  0  0  0
   -1.0283    0.6982   -2.1208 S   0  0  0  0  0  0  0  0  0  0  0  0
   -2.2718    1.5212    0.4467 O   0  0  0  0  0  0  0  0  0  0  0  0
   -2.9602    1.4187    1.7228 C   0  0  0  0  0  0  0  0  0  0  0  0
   -2.5052    2.5752    2.5858 C   0  0  0  0  0  0  0  0  0  0  0  0
   -3.5446   -0.1531   -0.7732 O   0  0  0  0  0  0  0  0  0  0  0  0
   -3.8557   -1.2537   -1.6493 C   0  0  0  0  0  0  0  0  0  0  0  0
   -5.3472   -1.2297   -1.9149 C   0  0  0  0  0  0  0  0  0  0  0  0
    4.6875   -0.9164   -2.9219 H   0  0  0  0  0  0  0  0  0  0  0  0
    4.8478    0.3276   -1.6705 H   0  0  0  0  0  0  0  0  0  0  0  0
    4.2470   -1.2846   -1.2488 H   0  0  0  0  0  0  0  0  0  0  0  0
    2.1988   -0.9082   -2.5720 H   0  0  0  0  0  0  0  0  0  0  0  0
    2.8133    0.6629   -3.1390 H   0  0  0  0  0  0  0  0  0  0  0  0
    4.1047   -1.3914    1.8142 H   0  0  0  0  0  0  0  0  0  0  0  0
    5.0514    0.0951    2.1216 H   0  0  0  0  0  0  0  0  0  0  0  0
    3.6610   -0.4865    4.1020 H   0  0  0  0  0  0  0  0  0  0  0  0
    3.0890    1.0311    3.3833 H   0  0  0  0  0  0  0  0  0  0  0  0
    2.2013   -0.4668    3.0995 H   0  0  0  0  0  0  0  0  0  0  0  0
   -0.1481   -2.9794   -0.6083 H   0  0  0  0  0  0  0  0  0  0  0  0
    0.0024   -1.3327   -1.3303 H   0  0  0  0  0  0  0  0  0  0  0  0
   -4.0323    1.4544    1.5196 H   0  0  0  0  0  0  0  0  0  0  0  0
   -2.7048    0.4588    2.1812 H   0  0  0  0  0  0  0  0  0  0  0  0
   -2.7610    3.5186    2.1123 H   0  0  0  0  0  0  0  0  0  0  0  0
   -2.9883    2.5099    3.5551 H   0  0  0  0  0  0  0  0  0  0  0  0
   -1.4256    2.5329    2.7131 H   0  0  0  0  0  0  0  0  0  0  0  0
   -3.2802   -1.1343   -2.5734 H   0  0  0  0  0  0  0  0  0  0  0  0
   -3.5538   -2.1807   -1.1529 H   0  0  0  0  0  0  0  0  0  0  0  0
   -5.8923   -1.3284   -0.9808 H   0  0  0  0  0  0  0  0  0  0  0  0
   -5.6258   -0.2921   -2.3878 H   0  0  0  0  0  0  0  0  0  0  0  0
   -5.6049   -2.0537   -2.5720 H   0  0  0  0  0  0  0  0  0  0  0  0
  1  2  1  0  0  0  0
  2  3  1  0  0  0  0
  3  4  2  0  0  0  0
  4  5  2  0  0  0  0
  4  6  2  0  0  0  0
  6  7  1  0  0  0  0
  7  8  1  0  0  0  0
  4  9  1  0  0  0  0
  9 10  1  0  0  0  0
 10 11  1  0  0  0  0
 11 12  1  0  0  0  0
 12 13  2  0  0  0  0
 12 14  2  0  0  0  0
 14 15  1  0  0  0  0
 15 16  1  0  0  0  0
 12 17  2  0  0  0  0
 17 18  1  0  0  0  0
 18 19  1  0  0  0  0
  1 20  1  0  0  0  0
  1 21  1  0  0  0  0
  1 22  1  0  0  0  0
  2 23  1  0  0  0  0
  2 24  1  0  0  0  0
  7 25  1  0  0  0  0
  7 26  1  0  0  0  0
  8 27  1  0  0  0  0
  8 28  1  0  0  0  0
  8 29  1  0  0  0  0
 10 30  1  0  0  0  0
 10 31  1  0  0  0  0
 15 32  1  0  0  0  0
 15 33  1  0  0  0  0
 16 34  1  0  0  0  0
 16 35  1  0  0  0  0
 16 36  1  0  0  0  0
 18 37  1  0  0  0  0
 18 38  1  0  0  0  0
 19 39  1  0  0  0  0
 19 40  1  0  0  0  0
 19 41  1  0  0  0  0
M  END
