 xtb: 6.7.1 (edcfbbe)
          04092505213D

 41 40  0     0  0            999 V2000
    3.4684   -0.7191   -2.3753 C   0  0  0  0  0  0  0  0  0  0  0  0
    2.0219   -0.3068   -2.2140 C   0  0  0  0  0  0  0  0  0  0  0  0
    1.5396   -0.6096   -0.8911 O   0  0  0  0  0  0  0  0  0  0  0  0
    2.0391    0.1883    0.3802 P   0  0  0  0  0  0  0  0  0  0  0  0
    2.7100    2.0082    0.1333 S   0  0  0  0  0  0  0  0  0  0  0  0
    3.0733   -0.8793    0.9655 O   0  0  0  0  0  0  0  0  0  0  0  0
    3.8251   -0.6183    2.1661 C   0  0  0  0  0  0  0  0  0  0  0  0
    5.1974   -0.0657    1.8342 C   0  0  0  0  0  0  0  0  0  0  0  0
    0.4008    0.0110    1.7089 S   0  0  0  0  0  0  0  0  0  0  0  0
   -0.0859   -1.6985    1.3650 C   0  0  0  0  0  0  0  0  0  0  0  0
   -1.0369   -1.9365   -0.1819 S   0  0  0  0  0  0  0  0  0  0  0  0
   -1.8883   -0.0321   -0.4904 P   0  0  0  0  0  0  0  0  0  0  0  0
   -0.8595    1.4923   -1.1686 S   0  0  0  0  0  0  0  0  0  0  0  0
   -2.6057    0.1660    0.9243 O   0  0  0  0  0  0  0  0  0  0  0  0
   -2.8786    1.4669    1.4755 C   0  0  0  0  0  0  0  0  0  0  0  0
   -4.0637    2.1126    0.7875 C   0  0  0  0  0  0  0  0  0  0  0  0
   -3.0164   -0.3713   -1.5498 O   0  0  0  0  0  0  0  0  0  0  0  0
   -4.0651   -1.3441   -1.3010 C   0  0  0  0  0  0  0  0  0  0  0  0
   -5.3357   -0.8477   -1.9604 C   0  0  0  0  0  0  0  0  0  0  0  0
    3.7807   -0.5430   -3.3997 H   0  0  0  0  0  0  0  0  0  0  0  0
    4.0915   -0.1268   -1.7059 H   0  0  0  0  0  0  0  0  0  0  0  0
    3.5868   -1.7716   -2.1321 H   0  0  0  0  0  0  0  0  0  0  0  0
    1.3553   -0.8694   -2.8701 H   0  0  0  0  0  0  0  0  0  0  0  0
    1.8912    0.7655   -2.3952 H   0  0  0  0  0  0  0  0  0  0  0  0
    3.2653    0.0798    2.7971 H   0  0  0  0  0  0  0  0  0  0  0  0
    3.8980   -1.5861    2.6661 H   0  0  0  0  0  0  0  0  0  0  0  0
    5.7283   -0.7522    1.1809 H   0  0  0  0  0  0  0  0  0  0  0  0
    5.1026    0.8955    1.3336 H   0  0  0  0  0  0  0  0  0  0  0  0
    5.7612    0.0674    2.7517 H   0  0  0  0  0  0  0  0  0  0  0  0
   -0.7121   -2.0019    2.2006 H   0  0  0  0  0  0  0  0  0  0  0  0
    0.8005   -2.3242    1.2804 H   0  0  0  0  0  0  0  0  0  0  0  0
   -3.0700    1.2744    2.5318 H   0  0  0  0  0  0  0  0  0  0  0  0
   -1.9825    2.0876    1.3711 H   0  0  0  0  0  0  0  0  0  0  0  0
   -3.8380    2.2566   -0.2692 H   0  0  0  0  0  0  0  0  0  0  0  0
   -4.9450    1.4834    0.8823 H   0  0  0  0  0  0  0  0  0  0  0  0
   -4.2609    3.0793    1.2399 H   0  0  0  0  0  0  0  0  0  0  0  0
   -3.7342   -2.2911   -1.7325 H   0  0  0  0  0  0  0  0  0  0  0  0
   -4.1923   -1.4609   -0.2221 H   0  0  0  0  0  0  0  0  0  0  0  0
   -6.1193   -1.5858   -1.8225 H   0  0  0  0  0  0  0  0  0  0  0  0
   -5.6478    0.0955   -1.5201 H   0  0  0  0  0  0  0  0  0  0  0  0
   -5.1667   -0.6955   -3.0225 H   0  0  0  0  0  0  0  0  0  0  0  0
  1  2  1  0  0  0  0
  2  3  1  0  0  0  0
  3  4  2  0  0  0  0
  4  5  2  0  0  0  0
  4  6  2  0  0  0  0
  6  7  1  0  0  0  0
  7  8  1  0  0  0  0
  4  9  1  0  0  0  0
  9 10  1  0  0  0  0
 10 11  1  0  0  0  0
 11 12  1  0  0  0  0
 12 13  2  0  0  0  0
 12 14  1  0  0  0  0
 14 15  1  0  0  0  0
 15 16  1  0  0  0  0
 12 17  2  0  0  0  0
 17 18  1  0  0  0  0
 18 19  1  0  0  0  0
  1 20  1  0  0  0  0
  1 21  1  0  0  0  0
  1 22  1  0  0  0  0
  2 23  1  0  0  0  0
  2 24  1  0  0  0  0
  7 25  1  0  0  0  0
  7 26  1  0  0  0  0
  8 27  1  0  0  0  0
  8 28  1  0  0  0  0
  8 29  1  0  0  0  0
 10 30  1  0  0  0  0
 10 31  1  0  0  0  0
 15 32  1  0  0  0  0
 15 33  1  0  0  0  0
 16 34  1  0  0  0  0
 16 35  1  0  0  0  0
 16 36  1  0  0  0  0
 18 37  1  0  0  0  0
 18 38  1  0  0  0  0
 19 39  1  0  0  0  0
 19 40  1  0  0  0  0
 19 41  1  0  0  0  0
M  END
