 xtb: 6.7.1 (edcfbbe)
          04092505203D

 41 40  0     0  0            999 V2000
    4.2867    0.1205   -1.9473 C   0  0  0  0  0  0  0  0  0  0  0  0
    2.9624   -0.6028   -2.0705 C   0  0  0  0  0  0  0  0  0  0  0  0
    2.4857   -1.0569   -0.7890 O   0  0  0  0  0  0  0  0  0  0  0  0
    1.9579   -0.0631    0.3243 P   0  0  0  0  0  0  0  0  0  0  0  0
    1.2119    1.6565   -0.2929 S   0  0  0  0  0  0  0  0  0  0  0  0
    3.2540    0.1337    1.2242 O   0  0  0  0  0  0  0  0  0  0  0  0
    3.3636    1.1427    2.2402 C   0  0  0  0  0  0  0  0  0  0  0  0
    2.6925    0.7062    3.5269 C   0  0  0  0  0  0  0  0  0  0  0  0
    0.8072   -1.4029    1.4733 S   0  0  0  0  0  0  0  0  0  0  0  0
   -0.2731   -2.1705    0.2113 C   0  0  0  0  0  0  0  0  0  0  0  0
   -0.5635   -1.1718   -1.2719 S   0  0  0  0  0  0  0  0  0  0  0  0
   -2.0399    0.1517   -0.5605 P   0  0  0  0  0  0  0  0  0  0  0  0
   -2.4836    1.6888   -1.6883 S   0  0  0  0  0  0  0  0  0  0  0  0
   -1.4912    0.4364    0.8959 O   0  0  0  0  0  0  0  0  0  0  0  0
   -2.1602    1.3904    1.7534 C   0  0  0  0  0  0  0  0  0  0  0  0
   -1.2135    1.7388    2.8819 C   0  0  0  0  0  0  0  0  0  0  0  0
   -3.3020   -0.7673   -0.2059 O   0  0  0  0  0  0  0  0  0  0  0  0
   -4.3532   -1.0167   -1.1509 C   0  0  0  0  0  0  0  0  0  0  0  0
   -3.8930   -1.9123   -2.2835 C   0  0  0  0  0  0  0  0  0  0  0  0
    4.1514    1.0428   -1.3835 H   0  0  0  0  0  0  0  0  0  0  0  0
    5.0082   -0.5057   -1.4294 H   0  0  0  0  0  0  0  0  0  0  0  0
    4.6590    0.3635   -2.9375 H   0  0  0  0  0  0  0  0  0  0  0  0
    3.0490   -1.5186   -2.6565 H   0  0  0  0  0  0  0  0  0  0  0  0
    2.2015    0.0480   -2.5151 H   0  0  0  0  0  0  0  0  0  0  0  0
    4.4384    1.2755    2.3731 H   0  0  0  0  0  0  0  0  0  0  0  0
    2.9222    2.0704    1.8585 H   0  0  0  0  0  0  0  0  0  0  0  0
    2.8424    1.4654    4.2876 H   0  0  0  0  0  0  0  0  0  0  0  0
    1.6247    0.5712    3.3625 H   0  0  0  0  0  0  0  0  0  0  0  0
    3.1124   -0.2366    3.8664 H   0  0  0  0  0  0  0  0  0  0  0  0
   -1.2207   -2.3838    0.7014 H   0  0  0  0  0  0  0  0  0  0  0  0
    0.2077   -3.0799   -0.1418 H   0  0  0  0  0  0  0  0  0  0  0  0
   -2.4159    2.2721    1.1556 H   0  0  0  0  0  0  0  0  0  0  0  0
   -3.0775    0.9251    2.1221 H   0  0  0  0  0  0  0  0  0  0  0  0
   -0.3080    2.1839    2.4760 H   0  0  0  0  0  0  0  0  0  0  0  0
   -1.6946    2.4504    3.5445 H   0  0  0  0  0  0  0  0  0  0  0  0
   -0.9532    0.8415    3.4373 H   0  0  0  0  0  0  0  0  0  0  0  0
   -5.1388   -1.4849   -0.5563 H   0  0  0  0  0  0  0  0  0  0  0  0
   -4.7006   -0.0546   -1.5406 H   0  0  0  0  0  0  0  0  0  0  0  0
   -3.1213   -1.4053   -2.8630 H   0  0  0  0  0  0  0  0  0  0  0  0
   -3.4866   -2.8423   -1.8950 H   0  0  0  0  0  0  0  0  0  0  0  0
   -4.7342   -2.1300   -2.9336 H   0  0  0  0  0  0  0  0  0  0  0  0
  1  2  1  0  0  0  0
  2  3  1  0  0  0  0
  3  4  2  0  0  0  0
  4  5  2  0  0  0  0
  4  6  2  0  0  0  0
  6  7  1  0  0  0  0
  7  8  1  0  0  0  0
  4  9  1  0  0  0  0
  9 10  1  0  0  0  0
 10 11  1  0  0  0  0
 11 12  1  0  0  0  0
 12 13  2  0  0  0  0
 12 14  2  0  0  0  0
 14 15  1  0  0  0  0
 15 16  1  0  0  0  0
 12 17  1  0  0  0  0
 17 18  1  0  0  0  0
 18 19  1  0  0  0  0
  1 20  1  0  0  0  0
  1 21  1  0  0  0  0
  1 22  1  0  0  0  0
  2 23  1  0  0  0  0
  2 24  1  0  0  0  0
  7 25  1  0  0  0  0
  7 26  1  0  0  0  0
  8 27  1  0  0  0  0
  8 28  1  0  0  0  0
  8 29  1  0  0  0  0
 10 30  1  0  0  0  0
 10 31  1  0  0  0  0
 15 32  1  0  0  0  0
 15 33  1  0  0  0  0
 16 34  1  0  0  0  0
 16 35  1  0  0  0  0
 16 36  1  0  0  0  0
 18 37  1  0  0  0  0
 18 38  1  0  0  0  0
 19 39  1  0  0  0  0
 19 40  1  0  0  0  0
 19 41  1  0  0  0  0
M  END
