 xtb: 6.7.1 (edcfbbe)
          04092505203D

 41 40  0     0  0            999 V2000
    5.8177    0.1216   -0.2698 C   0  0  0  0  0  0  0  0  0  0  0  0
    4.5030   -0.5371   -0.6371 C   0  0  0  0  0  0  0  0  0  0  0  0
    3.4514    0.1086    0.1082 O   0  0  0  0  0  0  0  0  0  0  0  0
    1.9507    0.1716   -0.4212 P   0  0  0  0  0  0  0  0  0  0  0  0
    1.8222    0.6553   -2.3222 S   0  0  0  0  0  0  0  0  0  0  0  0
    1.3144    1.1459    0.6490 O   0  0  0  0  0  0  0  0  0  0  0  0
    1.5161    2.5744    0.5625 C   0  0  0  0  0  0  0  0  0  0  0  0
    0.7092    3.2193    1.6684 C   0  0  0  0  0  0  0  0  0  0  0  0
    1.1748   -1.6874    0.1423 S   0  0  0  0  0  0  0  0  0  0  0  0
   -0.1730   -1.8807   -1.0768 C   0  0  0  0  0  0  0  0  0  0  0  0
   -1.8077   -1.9749   -0.3194 S   0  0  0  0  0  0  0  0  0  0  0  0
   -2.0083    0.0616    0.2652 P   0  0  0  0  0  0  0  0  0  0  0  0
   -1.4251    1.3935   -1.0445 S   0  0  0  0  0  0  0  0  0  0  0  0
   -1.2791    0.2147    1.6544 O   0  0  0  0  0  0  0  0  0  0  0  0
   -1.6657   -0.5105    2.8542 C   0  0  0  0  0  0  0  0  0  0  0  0
   -0.6656   -1.6048    3.1673 C   0  0  0  0  0  0  0  0  0  0  0  0
   -3.5373    0.1610    0.6939 O   0  0  0  0  0  0  0  0  0  0  0  0
   -4.5929    0.4662   -0.2346 C   0  0  0  0  0  0  0  0  0  0  0  0
   -4.8014   -0.6321   -1.2569 C   0  0  0  0  0  0  0  0  0  0  0  0
    6.6248   -0.3838   -0.7898 H   0  0  0  0  0  0  0  0  0  0  0  0
    5.8067    1.1689   -0.5596 H   0  0  0  0  0  0  0  0  0  0  0  0
    5.9795    0.0531    0.8021 H   0  0  0  0  0  0  0  0  0  0  0  0
    4.4986   -1.5965   -0.3696 H   0  0  0  0  0  0  0  0  0  0  0  0
    4.2876   -0.4327   -1.7061 H   0  0  0  0  0  0  0  0  0  0  0  0
    2.5848    2.7779    0.6676 H   0  0  0  0  0  0  0  0  0  0  0  0
    1.1803    2.9078   -0.4258 H   0  0  0  0  0  0  0  0  0  0  0  0
    1.0434    2.8530    2.6345 H   0  0  0  0  0  0  0  0  0  0  0  0
    0.8357    4.2959    1.6205 H   0  0  0  0  0  0  0  0  0  0  0  0
   -0.3427    2.9744    1.5422 H   0  0  0  0  0  0  0  0  0  0  0  0
   -0.0230   -2.8270   -1.5899 H   0  0  0  0  0  0  0  0  0  0  0  0
   -0.1295   -1.0417   -1.7769 H   0  0  0  0  0  0  0  0  0  0  0  0
   -1.6764    0.2502    3.6365 H   0  0  0  0  0  0  0  0  0  0  0  0
   -2.6709   -0.9126    2.7188 H   0  0  0  0  0  0  0  0  0  0  0  0
    0.3406   -1.1945    3.1954 H   0  0  0  0  0  0  0  0  0  0  0  0
   -0.9053   -2.0320    4.1359 H   0  0  0  0  0  0  0  0  0  0  0  0
   -0.6973   -2.3894    2.4153 H   0  0  0  0  0  0  0  0  0  0  0  0
   -5.4678    0.5932    0.4047 H   0  0  0  0  0  0  0  0  0  0  0  0
   -4.3528    1.4122   -0.7297 H   0  0  0  0  0  0  0  0  0  0  0  0
   -4.9109   -1.5944   -0.7635 H   0  0  0  0  0  0  0  0  0  0  0  0
   -5.6958   -0.4170   -1.8329 H   0  0  0  0  0  0  0  0  0  0  0  0
   -3.9506   -0.6787   -1.9346 H   0  0  0  0  0  0  0  0  0  0  0  0
  1  2  1  0  0  0  0
  2  3  1  0  0  0  0
  3  4  2  0  0  0  0
  4  5  2  0  0  0  0
  4  6  2  0  0  0  0
  6  7  1  0  0  0  0
  7  8  1  0  0  0  0
  4  9  1  0  0  0  0
  9 10  1  0  0  0  0
 10 11  1  0  0  0  0
 11 12  1  0  0  0  0
 12 13  2  0  0  0  0
 12 14  2  0  0  0  0
 14 15  1  0  0  0  0
 15 16  1  0  0  0  0
 12 17  2  0  0  0  0
 17 18  1  0  0  0  0
 18 19  1  0  0  0  0
  1 20  1  0  0  0  0
  1 21  1  0  0  0  0
  1 22  1  0  0  0  0
  2 23  1  0  0  0  0
  2 24  1  0  0  0  0
  7 25  1  0  0  0  0
  7 26  1  0  0  0  0
  8 27  1  0  0  0  0
  8 28  1  0  0  0  0
  8 29  1  0  0  0  0
 10 30  1  0  0  0  0
 10 31  1  0  0  0  0
 15 32  1  0  0  0  0
 15 33  1  0  0  0  0
 16 34  1  0  0  0  0
 16 35  1  0  0  0  0
 16 36  1  0  0  0  0
 18 37  1  0  0  0  0
 18 38  1  0  0  0  0
 19 39  1  0  0  0  0
 19 40  1  0  0  0  0
 19 41  1  0  0  0  0
M  END
