 xtb: 6.7.1 (edcfbbe)
          04092505203D

 41 40  0     0  0            999 V2000
    4.5900   -1.5410   -1.0578 C   0  0  0  0  0  0  0  0  0  0  0  0
    4.6539   -0.1064   -0.5749 C   0  0  0  0  0  0  0  0  0  0  0  0
    3.5367    0.2337    0.2644 O   0  0  0  0  0  0  0  0  0  0  0  0
    2.0478    0.3465   -0.2934 P   0  0  0  0  0  0  0  0  0  0  0  0
    1.9521    1.1419   -2.0887 S   0  0  0  0  0  0  0  0  0  0  0  0
    1.3635    1.1324    0.8990 O   0  0  0  0  0  0  0  0  0  0  0  0
    1.5564    2.5552    1.0532 C   0  0  0  0  0  0  0  0  0  0  0  0
    0.7274    3.0066    2.2362 C   0  0  0  0  0  0  0  0  0  0  0  0
    1.2418   -1.5670   -0.0248 S   0  0  0  0  0  0  0  0  0  0  0  0
    0.0027   -1.5851   -1.3701 C   0  0  0  0  0  0  0  0  0  0  0  0
   -1.6826   -1.8244   -0.7781 S   0  0  0  0  0  0  0  0  0  0  0  0
   -1.9148    0.0200    0.2601 P   0  0  0  0  0  0  0  0  0  0  0  0
   -1.3881    1.6041   -0.7673 S   0  0  0  0  0  0  0  0  0  0  0  0
   -1.1228   -0.0925    1.6184 O   0  0  0  0  0  0  0  0  0  0  0  0
   -1.5402   -0.8174    2.8022 C   0  0  0  0  0  0  0  0  0  0  0  0
   -1.6394   -2.3112    2.5754 C   0  0  0  0  0  0  0  0  0  0  0  0
   -3.4256   -0.0030    0.7507 O   0  0  0  0  0  0  0  0  0  0  0  0
   -4.5185    0.4600   -0.0627 C   0  0  0  0  0  0  0  0  0  0  0  0
   -4.7465   -0.4150   -1.2777 C   0  0  0  0  0  0  0  0  0  0  0  0
    4.4552   -2.2173   -0.2175 H   0  0  0  0  0  0  0  0  0  0  0  0
    3.7551   -1.6628   -1.7464 H   0  0  0  0  0  0  0  0  0  0  0  0
    5.5117   -1.7853   -1.5759 H   0  0  0  0  0  0  0  0  0  0  0  0
    4.6685    0.5845   -1.4241 H   0  0  0  0  0  0  0  0  0  0  0  0
    5.5215    0.0679    0.0630 H   0  0  0  0  0  0  0  0  0  0  0  0
    2.6221    2.7449    1.2080 H   0  0  0  0  0  0  0  0  0  0  0  0
    1.2334    3.0459    0.1282 H   0  0  0  0  0  0  0  0  0  0  0  0
   -0.3211    2.7857    2.0514 H   0  0  0  0  0  0  0  0  0  0  0  0
    1.0458    2.4852    3.1340 H   0  0  0  0  0  0  0  0  0  0  0  0
    0.8506    4.0762    2.3704 H   0  0  0  0  0  0  0  0  0  0  0  0
    0.2166   -2.4358   -2.0118 H   0  0  0  0  0  0  0  0  0  0  0  0
    0.0795   -0.6450   -1.9238 H   0  0  0  0  0  0  0  0  0  0  0  0
   -0.7578   -0.5744    3.5231 H   0  0  0  0  0  0  0  0  0  0  0  0
   -2.4954   -0.4056    3.1328 H   0  0  0  0  0  0  0  0  0  0  0  0
   -2.4585   -2.5412    1.8977 H   0  0  0  0  0  0  0  0  0  0  0  0
   -0.7125   -2.6929    2.1525 H   0  0  0  0  0  0  0  0  0  0  0  0
   -1.8224   -2.7974    3.5287 H   0  0  0  0  0  0  0  0  0  0  0  0
   -5.3719    0.4366    0.6166 H   0  0  0  0  0  0  0  0  0  0  0  0
   -4.3105    1.4911   -0.3650 H   0  0  0  0  0  0  0  0  0  0  0  0
   -3.9180   -0.3083   -1.9759 H   0  0  0  0  0  0  0  0  0  0  0  0
   -4.8261   -1.4588   -0.9853 H   0  0  0  0  0  0  0  0  0  0  0  0
   -5.6625   -0.1071   -1.7718 H   0  0  0  0  0  0  0  0  0  0  0  0
  1  2  1  0  0  0  0
  2  3  1  0  0  0  0
  3  4  2  0  0  0  0
  4  5  2  0  0  0  0
  4  6  2  0  0  0  0
  6  7  1  0  0  0  0
  7  8  1  0  0  0  0
  4  9  1  0  0  0  0
  9 10  1  0  0  0  0
 10 11  1  0  0  0  0
 11 12  1  0  0  0  0
 12 13  2  0  0  0  0
 12 14  2  0  0  0  0
 14 15  1  0  0  0  0
 15 16  1  0  0  0  0
 12 17  2  0  0  0  0
 17 18  1  0  0  0  0
 18 19  1  0  0  0  0
  1 20  1  0  0  0  0
  1 21  1  0  0  0  0
  1 22  1  0  0  0  0
  2 23  1  0  0  0  0
  2 24  1  0  0  0  0
  7 25  1  0  0  0  0
  7 26  1  0  0  0  0
  8 27  1  0  0  0  0
  8 28  1  0  0  0  0
  8 29  1  0  0  0  0
 10 30  1  0  0  0  0
 10 31  1  0  0  0  0
 15 32  1  0  0  0  0
 15 33  1  0  0  0  0
 16 34  1  0  0  0  0
 16 35  1  0  0  0  0
 16 36  1  0  0  0  0
 18 37  1  0  0  0  0
 18 38  1  0  0  0  0
 19 39  1  0  0  0  0
 19 40  1  0  0  0  0
 19 41  1  0  0  0  0
M  END
