 xtb: 6.7.1 (edcfbbe)
          04092505203D

 41 40  0     0  0            999 V2000
    3.3196   -1.1320   -3.0516 C   0  0  0  0  0  0  0  0  0  0  0  0
    1.9664   -0.9127   -2.4067 C   0  0  0  0  0  0  0  0  0  0  0  0
    2.0089    0.1964   -1.4764 O   0  0  0  0  0  0  0  0  0  0  0  0
    2.1967    0.0323    0.0771 P   0  0  0  0  0  0  0  0  0  0  0  0
    2.2522    1.7742    0.9613 S   0  0  0  0  0  0  0  0  0  0  0  0
    3.5208   -0.8531    0.1274 O   0  0  0  0  0  0  0  0  0  0  0  0
    3.9941   -1.5865    1.2708 C   0  0  0  0  0  0  0  0  0  0  0  0
    4.2419   -0.7047    2.4769 C   0  0  0  0  0  0  0  0  0  0  0  0
    0.7135   -1.3562    0.7655 S   0  0  0  0  0  0  0  0  0  0  0  0
   -0.1213   -0.3221    2.0051 C   0  0  0  0  0  0  0  0  0  0  0  0
   -1.9286   -0.3857    1.8937 S   0  0  0  0  0  0  0  0  0  0  0  0
   -2.1747    0.2140   -0.1066 P   0  0  0  0  0  0  0  0  0  0  0  0
   -0.9246    1.5237   -0.8840 S   0  0  0  0  0  0  0  0  0  0  0  0
   -3.7054    0.6333   -0.1925 O   0  0  0  0  0  0  0  0  0  0  0  0
   -4.1567    1.9779    0.0399 C   0  0  0  0  0  0  0  0  0  0  0  0
   -3.9625    2.4055    1.4804 C   0  0  0  0  0  0  0  0  0  0  0  0
   -2.1863   -1.2136   -0.7912 O   0  0  0  0  0  0  0  0  0  0  0  0
   -2.0087   -1.3998   -2.2087 C   0  0  0  0  0  0  0  0  0  0  0  0
   -3.2408   -0.9918   -2.9892 C   0  0  0  0  0  0  0  0  0  0  0  0
    4.0546   -1.4135   -2.3030 H   0  0  0  0  0  0  0  0  0  0  0  0
    3.2346   -1.9228   -3.7903 H   0  0  0  0  0  0  0  0  0  0  0  0
    3.6489   -0.2180   -3.5383 H   0  0  0  0  0  0  0  0  0  0  0  0
    1.6245   -1.8077   -1.8781 H   0  0  0  0  0  0  0  0  0  0  0  0
    1.2220   -0.6145   -3.1485 H   0  0  0  0  0  0  0  0  0  0  0  0
    3.2635   -2.3667    1.5034 H   0  0  0  0  0  0  0  0  0  0  0  0
    4.9208   -2.0415    0.9165 H   0  0  0  0  0  0  0  0  0  0  0  0
    4.6806   -1.2987    3.2721 H   0  0  0  0  0  0  0  0  0  0  0  0
    4.9163    0.1084    2.2193 H   0  0  0  0  0  0  0  0  0  0  0  0
    3.3072   -0.2711    2.8285 H   0  0  0  0  0  0  0  0  0  0  0  0
    0.2310    0.7068    1.8803 H   0  0  0  0  0  0  0  0  0  0  0  0
    0.1198   -0.7007    2.9956 H   0  0  0  0  0  0  0  0  0  0  0  0
   -3.6125    2.6466   -0.6351 H   0  0  0  0  0  0  0  0  0  0  0  0
   -5.2123    1.9503   -0.2339 H   0  0  0  0  0  0  0  0  0  0  0  0
   -2.8992    2.4893    1.7038 H   0  0  0  0  0  0  0  0  0  0  0  0
   -4.4296    3.3729    1.6351 H   0  0  0  0  0  0  0  0  0  0  0  0
   -4.4055    1.6764    2.1542 H   0  0  0  0  0  0  0  0  0  0  0  0
   -1.1390   -0.8146   -2.5267 H   0  0  0  0  0  0  0  0  0  0  0  0
   -1.7978   -2.4654   -2.3087 H   0  0  0  0  0  0  0  0  0  0  0  0
   -4.1174   -1.4969   -2.5930 H   0  0  0  0  0  0  0  0  0  0  0  0
   -3.3904    0.0841   -2.9122 H   0  0  0  0  0  0  0  0  0  0  0  0
   -3.1094   -1.2576   -4.0335 H   0  0  0  0  0  0  0  0  0  0  0  0
  1  2  1  0  0  0  0
  2  3  1  0  0  0  0
  3  4  2  0  0  0  0
  4  5  2  0  0  0  0
  4  6  2  0  0  0  0
  6  7  1  0  0  0  0
  7  8  1  0  0  0  0
  4  9  1  0  0  0  0
  9 10  1  0  0  0  0
 10 11  1  0  0  0  0
 11 12  1  0  0  0  0
 12 13  2  0  0  0  0
 12 14  2  0  0  0  0
 14 15  1  0  0  0  0
 15 16  1  0  0  0  0
 12 17  2  0  0  0  0
 17 18  1  0  0  0  0
 18 19  1  0  0  0  0
  1 20  1  0  0  0  0
  1 21  1  0  0  0  0
  1 22  1  0  0  0  0
  2 23  1  0  0  0  0
  2 24  1  0  0  0  0
  7 25  1  0  0  0  0
  7 26  1  0  0  0  0
  8 27  1  0  0  0  0
  8 28  1  0  0  0  0
  8 29  1  0  0  0  0
 10 30  1  0  0  0  0
 10 31  1  0  0  0  0
 15 32  1  0  0  0  0
 15 33  1  0  0  0  0
 16 34  1  0  0  0  0
 16 35  1  0  0  0  0
 16 36  1  0  0  0  0
 18 37  1  0  0  0  0
 18 38  1  0  0  0  0
 19 39  1  0  0  0  0
 19 40  1  0  0  0  0
 19 41  1  0  0  0  0
M  END
