 xtb: 6.7.1 (edcfbbe)
          04092505213D

 41 40  0     0  0            999 V2000
    4.7062    1.0209   -1.6652 C   0  0  0  0  0  0  0  0  0  0  0  0
    4.7437   -0.2422   -0.8293 C   0  0  0  0  0  0  0  0  0  0  0  0
    3.4455   -0.8500   -0.7063 O   0  0  0  0  0  0  0  0  0  0  0  0
    2.2685   -0.1826    0.1248 P   0  0  0  0  0  0  0  0  0  0  0  0
    2.8231    0.7076    1.7837 S   0  0  0  0  0  0  0  0  0  0  0  0
    1.2536   -1.3877    0.2764 O   0  0  0  0  0  0  0  0  0  0  0  0
    1.2367   -2.2494    1.4311 C   0  0  0  0  0  0  0  0  0  0  0  0
    2.4900   -3.0933    1.5234 C   0  0  0  0  0  0  0  0  0  0  0  0
    1.2276    0.9790   -1.2935 S   0  0  0  0  0  0  0  0  0  0  0  0
    0.2587    1.9468   -0.0974 C   0  0  0  0  0  0  0  0  0  0  0  0
   -0.7849    0.9529    1.0015 S   0  0  0  0  0  0  0  0  0  0  0  0
   -2.1264    0.1088   -0.4482 P   0  0  0  0  0  0  0  0  0  0  0  0
   -1.4769   -1.2896   -1.6491 S   0  0  0  0  0  0  0  0  0  0  0  0
   -2.7060    1.3465   -1.2255 O   0  0  0  0  0  0  0  0  0  0  0  0
   -3.4440    2.4254   -0.5914 C   0  0  0  0  0  0  0  0  0  0  0  0
   -4.9347    2.1691   -0.6672 C   0  0  0  0  0  0  0  0  0  0  0  0
   -3.3201   -0.3440    0.4979 O   0  0  0  0  0  0  0  0  0  0  0  0
   -3.2114   -1.5251    1.3169 C   0  0  0  0  0  0  0  0  0  0  0  0
   -4.6053   -1.9053    1.7731 C   0  0  0  0  0  0  0  0  0  0  0  0
    4.2305    0.8256   -2.6233 H   0  0  0  0  0  0  0  0  0  0  0  0
    4.1419    1.7946   -1.1459 H   0  0  0  0  0  0  0  0  0  0  0  0
    5.7194    1.3733   -1.8297 H   0  0  0  0  0  0  0  0  0  0  0  0
    5.1195   -0.0259    0.1761 H   0  0  0  0  0  0  0  0  0  0  0  0
    5.3522   -1.0178   -1.2962 H   0  0  0  0  0  0  0  0  0  0  0  0
    1.1188   -1.6258    2.3239 H   0  0  0  0  0  0  0  0  0  0  0  0
    0.3448   -2.8610    1.2831 H   0  0  0  0  0  0  0  0  0  0  0  0
    2.3928   -3.7935    2.3471 H   0  0  0  0  0  0  0  0  0  0  0  0
    2.6412   -3.6398    0.5960 H   0  0  0  0  0  0  0  0  0  0  0  0
    3.3537   -2.4532    1.7011 H   0  0  0  0  0  0  0  0  0  0  0  0
   -0.3527    2.6289   -0.6831 H   0  0  0  0  0  0  0  0  0  0  0  0
    0.9361    2.4891    0.5622 H   0  0  0  0  0  0  0  0  0  0  0  0
   -3.1121    2.5234    0.4456 H   0  0  0  0  0  0  0  0  0  0  0  0
   -3.1664    3.3146   -1.1606 H   0  0  0  0  0  0  0  0  0  0  0  0
   -5.1934    1.2800   -0.0991 H   0  0  0  0  0  0  0  0  0  0  0  0
   -5.4625    3.0244   -0.2569 H   0  0  0  0  0  0  0  0  0  0  0  0
   -5.2348    2.0238   -1.7013 H   0  0  0  0  0  0  0  0  0  0  0  0
   -2.7523   -2.3199    0.7192 H   0  0  0  0  0  0  0  0  0  0  0  0
   -2.5617   -1.2920    2.1654 H   0  0  0  0  0  0  0  0  0  0  0  0
   -5.2336   -2.1179    0.9127 H   0  0  0  0  0  0  0  0  0  0  0  0
   -4.5456   -2.7892    2.3994 H   0  0  0  0  0  0  0  0  0  0  0  0
   -5.0456   -1.0914    2.3416 H   0  0  0  0  0  0  0  0  0  0  0  0
  1  2  1  0  0  0  0
  2  3  1  0  0  0  0
  3  4  2  0  0  0  0
  4  5  2  0  0  0  0
  4  6  2  0  0  0  0
  6  7  1  0  0  0  0
  7  8  1  0  0  0  0
  4  9  1  0  0  0  0
  9 10  1  0  0  0  0
 10 11  1  0  0  0  0
 11 12  1  0  0  0  0
 12 13  2  0  0  0  0
 12 14  2  0  0  0  0
 14 15  1  0  0  0  0
 15 16  1  0  0  0  0
 12 17  2  0  0  0  0
 17 18  1  0  0  0  0
 18 19  1  0  0  0  0
  1 20  1  0  0  0  0
  1 21  1  0  0  0  0
  1 22  1  0  0  0  0
  2 23  1  0  0  0  0
  2 24  1  0  0  0  0
  7 25  1  0  0  0  0
  7 26  1  0  0  0  0
  8 27  1  0  0  0  0
  8 28  1  0  0  0  0
  8 29  1  0  0  0  0
 10 30  1  0  0  0  0
 10 31  1  0  0  0  0
 15 32  1  0  0  0  0
 15 33  1  0  0  0  0
 16 34  1  0  0  0  0
 16 35  1  0  0  0  0
 16 36  1  0  0  0  0
 18 37  1  0  0  0  0
 18 38  1  0  0  0  0
 19 39  1  0  0  0  0
 19 40  1  0  0  0  0
 19 41  1  0  0  0  0
M  END
