 xtb: 6.7.1 (edcfbbe)
          04032520323D

 20 21  0     0  0            999 V2000
   -2.7344   -0.2590   -0.0035 C   0  0  0  0  0  0  0  0  0  0  0  0
   -2.3499    1.0886    0.0091 C   0  0  0  0  0  0  0  0  0  0  0  0
   -1.0245    1.4287    0.0093 C   0  0  0  0  0  0  0  0  0  0  0  0
   -0.0147    0.4449   -0.0036 C   0  0  0  0  0  0  0  0  0  0  0  0
   -0.4065   -0.9216   -0.0056 C   0  0  0  0  0  0  0  0  0  0  0  0
   -1.7820   -1.2380   -0.0086 C   0  0  0  0  0  0  0  0  0  0  0  0
    0.5732   -1.9345    0.0007 C   0  0  0  0  0  0  0  0  0  0  0  0
    1.9009   -1.6050    0.0101 C   0  0  0  0  0  0  0  0  0  0  0  0
    2.3017   -0.2690   -0.0002 C   0  0  0  0  0  0  0  0  0  0  0  0
    1.3795    0.7618   -0.0121 C   0  0  0  0  0  0  0  0  0  0  0  0
    1.8115    2.0641    0.0350 N   0  0  0  0  0  0  0  0  0  0  0  0
   -3.7837   -0.5150   -0.0053 H   0  0  0  0  0  0  0  0  0  0  0  0
   -3.1077    1.8580    0.0206 H   0  0  0  0  0  0  0  0  0  0  0  0
   -0.7576    2.4744    0.0331 H   0  0  0  0  0  0  0  0  0  0  0  0
   -2.0669   -2.2808   -0.0124 H   0  0  0  0  0  0  0  0  0  0  0  0
    0.2574   -2.9674    0.0006 H   0  0  0  0  0  0  0  0  0  0  0  0
    2.6548   -2.3791    0.0172 H   0  0  0  0  0  0  0  0  0  0  0  0
    3.3561   -0.0319   -0.0002 H   0  0  0  0  0  0  0  0  0  0  0  0
    2.7834    2.2095   -0.1819 H   0  0  0  0  0  0  0  0  0  0  0  0
    1.1887    2.7757   -0.3055 H   0  0  0  0  0  0  0  0  0  0  0  0
  1  2  4  0  0  0  0
  2  3  2  0  0  0  0
  3  4  4  0  0  0  0
  4  5  4  0  0  0  0
  1  6  2  0  0  0  0
  5  6  4  0  0  0  0
  5  7  4  0  0  0  0
  7  8  2  0  0  0  0
  8  9  4  0  0  0  0
  4 10  4  0  0  0  0
  9 10  4  0  0  0  0
 10 11  1  0  0  0  0
  1 12  1  0  0  0  0
  2 13  1  0  0  0  0
  3 14  1  0  0  0  0
  6 15  1  0  0  0  0
  7 16  1  0  0  0  0
  8 17  1  0  0  0  0
  9 18  1  0  0  0  0
 11 19  1  0  0  0  0
 11 20  1  0  0  0  0
M  END
