 xtb: 6.7.1 (edcfbbe)
          04092505203D

 41 40  0     0  0            999 V2000
    5.7437   -0.4425    0.3283 C   0  0  0  0  0  0  0  0  0  0  0  0
    4.3943   -0.8271   -0.2438 C   0  0  0  0  0  0  0  0  0  0  0  0
    3.3982    0.0240    0.3561 O   0  0  0  0  0  0  0  0  0  0  0  0
    1.9489    0.1830   -0.2811 P   0  0  0  0  0  0  0  0  0  0  0  0
    1.9578    0.5411   -2.2127 S   0  0  0  0  0  0  0  0  0  0  0  0
    1.3223    1.2668    0.6840 O   0  0  0  0  0  0  0  0  0  0  0  0
    1.3967    2.6785    0.4061 C   0  0  0  0  0  0  0  0  0  0  0  0
    2.8186    3.1920    0.4698 C   0  0  0  0  0  0  0  0  0  0  0  0
    1.0207   -1.5949    0.3413 S   0  0  0  0  0  0  0  0  0  0  0  0
   -0.1921   -1.8489   -1.0029 C   0  0  0  0  0  0  0  0  0  0  0  0
   -1.8848   -1.9459   -0.3994 S   0  0  0  0  0  0  0  0  0  0  0  0
   -2.0826    0.0892    0.1927 P   0  0  0  0  0  0  0  0  0  0  0  0
   -1.4207    1.3652   -1.1424 S   0  0  0  0  0  0  0  0  0  0  0  0
   -1.3249    0.3354    1.5526 O   0  0  0  0  0  0  0  0  0  0  0  0
   -1.7383   -0.1084    2.8697 C   0  0  0  0  0  0  0  0  0  0  0  0
   -1.7548   -1.6166    3.0076 C   0  0  0  0  0  0  0  0  0  0  0  0
   -3.5995    0.1966    0.6434 O   0  0  0  0  0  0  0  0  0  0  0  0
   -4.7229   -0.3108   -0.1024 C   0  0  0  0  0  0  0  0  0  0  0  0
   -4.8054    0.2650   -1.5000 C   0  0  0  0  0  0  0  0  0  0  0  0
    5.9784    0.5878    0.0767 H   0  0  0  0  0  0  0  0  0  0  0  0
    5.7296   -0.5469    1.4092 H   0  0  0  0  0  0  0  0  0  0  0  0
    6.5044   -1.0948   -0.0876 H   0  0  0  0  0  0  0  0  0  0  0  0
    4.1425   -1.8650   -0.0089 H   0  0  0  0  0  0  0  0  0  0  0  0
    4.3612   -0.6881   -1.3299 H   0  0  0  0  0  0  0  0  0  0  0  0
    0.9552    2.8607   -0.5799 H   0  0  0  0  0  0  0  0  0  0  0  0
    0.7615    3.1259    1.1721 H   0  0  0  0  0  0  0  0  0  0  0  0
    3.4054    2.7491   -0.3344 H   0  0  0  0  0  0  0  0  0  0  0  0
    2.8154    4.2710    0.3518 H   0  0  0  0  0  0  0  0  0  0  0  0
    3.2695    2.9287    1.4231 H   0  0  0  0  0  0  0  0  0  0  0  0
    0.0197   -2.8068   -1.4707 H   0  0  0  0  0  0  0  0  0  0  0  0
   -0.0936   -1.0282   -1.7194 H   0  0  0  0  0  0  0  0  0  0  0  0
   -0.9898    0.3427    3.5232 H   0  0  0  0  0  0  0  0  0  0  0  0
   -2.7213    0.3183    3.0767 H   0  0  0  0  0  0  0  0  0  0  0  0
   -0.8003   -2.0363    2.6967 H   0  0  0  0  0  0  0  0  0  0  0  0
   -1.9315   -1.8694    4.0485 H   0  0  0  0  0  0  0  0  0  0  0  0
   -2.5456   -2.0507    2.4000 H   0  0  0  0  0  0  0  0  0  0  0  0
   -4.6447   -1.4007   -0.1379 H   0  0  0  0  0  0  0  0  0  0  0  0
   -5.5831   -0.0173    0.5018 H   0  0  0  0  0  0  0  0  0  0  0  0
   -3.9411   -0.0444   -2.0860 H   0  0  0  0  0  0  0  0  0  0  0  0
   -5.7078   -0.0927   -1.9850 H   0  0  0  0  0  0  0  0  0  0  0  0
   -4.8213    1.3517   -1.4637 H   0  0  0  0  0  0  0  0  0  0  0  0
  1  2  1  0  0  0  0
  2  3  1  0  0  0  0
  3  4  2  0  0  0  0
  4  5  2  0  0  0  0
  4  6  2  0  0  0  0
  6  7  1  0  0  0  0
  7  8  1  0  0  0  0
  4  9  1  0  0  0  0
  9 10  1  0  0  0  0
 10 11  1  0  0  0  0
 11 12  1  0  0  0  0
 12 13  2  0  0  0  0
 12 14  2  0  0  0  0
 14 15  1  0  0  0  0
 15 16  1  0  0  0  0
 12 17  2  0  0  0  0
 17 18  1  0  0  0  0
 18 19  1  0  0  0  0
  1 20  1  0  0  0  0
  1 21  1  0  0  0  0
  1 22  1  0  0  0  0
  2 23  1  0  0  0  0
  2 24  1  0  0  0  0
  7 25  1  0  0  0  0
  7 26  1  0  0  0  0
  8 27  1  0  0  0  0
  8 28  1  0  0  0  0
  8 29  1  0  0  0  0
 10 30  1  0  0  0  0
 10 31  1  0  0  0  0
 15 32  1  0  0  0  0
 15 33  1  0  0  0  0
 16 34  1  0  0  0  0
 16 35  1  0  0  0  0
 16 36  1  0  0  0  0
 18 37  1  0  0  0  0
 18 38  1  0  0  0  0
 19 39  1  0  0  0  0
 19 40  1  0  0  0  0
 19 41  1  0  0  0  0
M  END
