 xtb: 6.7.1 (edcfbbe)
          04092507313D

 38 37  0     0  0            999 V2000
    2.1571   -4.0238   -0.0248 C   0  0  0  0  0  0  0  0  0  0  0  0
    2.2720   -2.5652    0.3716 C   0  0  0  0  0  0  0  0  0  0  0  0
    1.8101   -1.7640   -0.7322 O   0  0  0  0  0  0  0  0  0  0  0  0
    2.1043   -0.4805   -0.7411 C   0  0  0  0  0  0  0  0  0  0  0  0
    2.7028    0.0967    0.1407 O   0  0  0  0  0  0  0  0  0  0  0  0
    1.6235    0.1948   -2.0147 C   0  0  0  0  0  0  0  0  0  0  0  0
    0.3011    0.9351   -1.7946 C   0  0  0  0  0  0  0  0  0  0  0  0
    0.0647    1.5142   -2.6924 H   0  0  0  0  0  0  0  0  0  0  0  0
    0.3573    1.8831   -0.6141 C   0  0  0  0  0  0  0  0  0  0  0  0
   -0.4697    1.8545    0.2809 O   0  0  0  0  0  0  0  0  0  0  0  0
    1.3425    2.7265   -0.7017 O   0  0  0  0  0  0  0  0  0  0  0  0
    1.5422    3.6723    0.3724 C   0  0  0  0  0  0  0  0  0  0  0  0
    2.2266    3.0186    1.5602 C   0  0  0  0  0  0  0  0  0  0  0  0
   -1.1097   -0.1990   -1.5813 S   0  0  0  0  0  0  0  0  0  0  0  0
   -1.5640   -0.2865    0.5031 P   0  0  0  0  0  0  0  0  0  0  0  0
   -0.2345   -0.4979    1.9326 S   0  0  0  0  0  0  0  0  0  0  0  0
   -2.7389    0.7240    0.8306 O   0  0  0  0  0  0  0  0  0  0  0  0
   -3.9745    0.7396    0.0914 C   0  0  0  0  0  0  0  0  0  0  0  0
   -2.4524   -1.6338    0.3933 O   0  0  0  0  0  0  0  0  0  0  0  0
   -1.8534   -2.9219    0.2538 C   0  0  0  0  0  0  0  0  0  0  0  0
    2.7671   -4.2215   -0.9012 H   0  0  0  0  0  0  0  0  0  0  0  0
    2.4991   -4.6423    0.7981 H   0  0  0  0  0  0  0  0  0  0  0  0
    1.1237   -4.2692   -0.2507 H   0  0  0  0  0  0  0  0  0  0  0  0
    3.3052   -2.2779    0.5909 H   0  0  0  0  0  0  0  0  0  0  0  0
    1.6612   -2.3257    1.2483 H   0  0  0  0  0  0  0  0  0  0  0  0
    1.4825   -0.5597   -2.7873 H   0  0  0  0  0  0  0  0  0  0  0  0
    2.3785    0.9232   -2.3133 H   0  0  0  0  0  0  0  0  0  0  0  0
    2.1684    4.4434   -0.0755 H   0  0  0  0  0  0  0  0  0  0  0  0
    0.5696    4.0802    0.6617 H   0  0  0  0  0  0  0  0  0  0  0  0
    2.4532    3.7724    2.3065 H   0  0  0  0  0  0  0  0  0  0  0  0
    1.5804    2.2635    2.0052 H   0  0  0  0  0  0  0  0  0  0  0  0
    3.1432    2.5282    1.2436 H   0  0  0  0  0  0  0  0  0  0  0  0
   -3.7742    0.7771   -0.9797 H   0  0  0  0  0  0  0  0  0  0  0  0
   -4.4868    1.6403    0.4198 H   0  0  0  0  0  0  0  0  0  0  0  0
   -4.5567   -0.1488    0.3295 H   0  0  0  0  0  0  0  0  0  0  0  0
   -1.4157   -3.0243   -0.7396 H   0  0  0  0  0  0  0  0  0  0  0  0
   -2.6597   -3.6373    0.3938 H   0  0  0  0  0  0  0  0  0  0  0  0
   -1.0848   -3.0584    1.0170 H   0  0  0  0  0  0  0  0  0  0  0  0
  1  2  1  0  0  0  0
  2  3  1  0  0  0  0
  3  4  1  0  0  0  0
  4  5  2  0  0  0  0
  4  6  1  0  0  0  0
  6  7  1  0  0  0  0
  7  8  1  0  0  0  0
  7  9  1  0  0  0  0
  9 10  2  0  0  0  0
  9 11  4  0  0  0  0
 11 12  1  0  0  0  0
 12 13  1  0  0  0  0
  7 14  1  0  0  0  0
 14 15  1  0  0  0  0
 15 16  2  0  0  0  0
 15 17  2  0  0  0  0
 17 18  1  0  0  0  0
 15 19  1  0  0  0  0
 19 20  1  0  0  0  0
  1 21  1  0  0  0  0
  1 22  1  0  0  0  0
  1 23  1  0  0  0  0
  2 24  1  0  0  0  0
  2 25  1  0  0  0  0
  6 26  1  0  0  0  0
  6 27  1  0  0  0  0
 12 28  1  0  0  0  0
 12 29  1  0  0  0  0
 13 30  1  0  0  0  0
 13 31  1  0  0  0  0
 13 32  1  0  0  0  0
 18 33  1  0  0  0  0
 18 34  1  0  0  0  0
 18 35  1  0  0  0  0
 20 36  1  0  0  0  0
 20 37  1  0  0  0  0
 20 38  1  0  0  0  0
M  END
