 xtb: 6.7.1 (edcfbbe)
          04092505203D

 41 40  0     0  0            999 V2000
    5.6654    1.2340   -0.4687 C   0  0  0  0  0  0  0  0  0  0  0  0
    4.3466    0.7330   -1.0213 C   0  0  0  0  0  0  0  0  0  0  0  0
    3.4880    0.4222    0.0956 O   0  0  0  0  0  0  0  0  0  0  0  0
    1.9263    0.2115   -0.1026 P   0  0  0  0  0  0  0  0  0  0  0  0
    1.0054    1.6836   -1.0012 S   0  0  0  0  0  0  0  0  0  0  0  0
    1.4194   -0.0328    1.3653 O   0  0  0  0  0  0  0  0  0  0  0  0
    1.9642   -1.0513    2.2452 C   0  0  0  0  0  0  0  0  0  0  0  0
    3.0073   -0.4583    3.1689 C   0  0  0  0  0  0  0  0  0  0  0  0
    1.8803   -1.6675   -1.1057 S   0  0  0  0  0  0  0  0  0  0  0  0
    0.1147   -1.7411   -1.4763 C   0  0  0  0  0  0  0  0  0  0  0  0
   -0.9156   -1.8970    0.0180 S   0  0  0  0  0  0  0  0  0  0  0  0
   -2.0156   -0.1015   -0.0762 P   0  0  0  0  0  0  0  0  0  0  0  0
   -2.2931    0.5761   -1.9015 S   0  0  0  0  0  0  0  0  0  0  0  0
   -1.2816    0.7712    1.0167 O   0  0  0  0  0  0  0  0  0  0  0  0
   -1.8734    1.8859    1.7194 C   0  0  0  0  0  0  0  0  0  0  0  0
   -2.3639    2.9653    0.7782 C   0  0  0  0  0  0  0  0  0  0  0  0
   -3.3654   -0.4596    0.6840 O   0  0  0  0  0  0  0  0  0  0  0  0
   -4.4662   -1.1220    0.0305 C   0  0  0  0  0  0  0  0  0  0  0  0
   -5.7484   -0.7050    0.7228 C   0  0  0  0  0  0  0  0  0  0  0  0
    6.3280    1.4718   -1.2942 H   0  0  0  0  0  0  0  0  0  0  0  0
    5.5046    2.1263    0.1298 H   0  0  0  0  0  0  0  0  0  0  0  0
    6.1239    0.4691    0.1511 H   0  0  0  0  0  0  0  0  0  0  0  0
    4.4788   -0.1775   -1.6117 H   0  0  0  0  0  0  0  0  0  0  0  0
    3.8533    1.4915   -1.6379 H   0  0  0  0  0  0  0  0  0  0  0  0
    1.0981   -1.4215    2.7974 H   0  0  0  0  0  0  0  0  0  0  0  0
    2.3843   -1.8576    1.6373 H   0  0  0  0  0  0  0  0  0  0  0  0
    3.8491   -0.0834    2.5930 H   0  0  0  0  0  0  0  0  0  0  0  0
    2.5798    0.3618    3.7392 H   0  0  0  0  0  0  0  0  0  0  0  0
    3.3525   -1.2287    3.8512 H   0  0  0  0  0  0  0  0  0  0  0  0
   -0.0286   -2.6339   -2.0794 H   0  0  0  0  0  0  0  0  0  0  0  0
   -0.1949   -0.8438   -2.0206 H   0  0  0  0  0  0  0  0  0  0  0  0
   -2.6863    1.5021    2.3399 H   0  0  0  0  0  0  0  0  0  0  0  0
   -1.0565    2.2461    2.3473 H   0  0  0  0  0  0  0  0  0  0  0  0
   -3.1828    2.5878    0.1665 H   0  0  0  0  0  0  0  0  0  0  0  0
   -2.7103    3.8190    1.3519 H   0  0  0  0  0  0  0  0  0  0  0  0
   -1.5581    3.2776    0.1157 H   0  0  0  0  0  0  0  0  0  0  0  0
   -4.4686   -0.8342   -1.0264 H   0  0  0  0  0  0  0  0  0  0  0  0
   -4.3009   -2.1990    0.1104 H   0  0  0  0  0  0  0  0  0  0  0  0
   -5.7016   -0.9606    1.7774 H   0  0  0  0  0  0  0  0  0  0  0  0
   -5.8976    0.3669    0.6247 H   0  0  0  0  0  0  0  0  0  0  0  0
   -6.5831   -1.2240    0.2635 H   0  0  0  0  0  0  0  0  0  0  0  0
  1  2  1  0  0  0  0
  2  3  1  0  0  0  0
  3  4  2  0  0  0  0
  4  5  2  0  0  0  0
  4  6  2  0  0  0  0
  6  7  1  0  0  0  0
  7  8  1  0  0  0  0
  4  9  1  0  0  0  0
  9 10  1  0  0  0  0
 10 11  1  0  0  0  0
 11 12  1  0  0  0  0
 12 13  2  0  0  0  0
 12 14  2  0  0  0  0
 14 15  1  0  0  0  0
 15 16  1  0  0  0  0
 12 17  2  0  0  0  0
 17 18  1  0  0  0  0
 18 19  1  0  0  0  0
  1 20  1  0  0  0  0
  1 21  1  0  0  0  0
  1 22  1  0  0  0  0
  2 23  1  0  0  0  0
  2 24  1  0  0  0  0
  7 25  1  0  0  0  0
  7 26  1  0  0  0  0
  8 27  1  0  0  0  0
  8 28  1  0  0  0  0
  8 29  1  0  0  0  0
 10 30  1  0  0  0  0
 10 31  1  0  0  0  0
 15 32  1  0  0  0  0
 15 33  1  0  0  0  0
 16 34  1  0  0  0  0
 16 35  1  0  0  0  0
 16 36  1  0  0  0  0
 18 37  1  0  0  0  0
 18 38  1  0  0  0  0
 19 39  1  0  0  0  0
 19 40  1  0  0  0  0
 19 41  1  0  0  0  0
M  END
