 xtb: 6.7.1 (edcfbbe)
          04032520173D

 27 27  0     0  0            999 V2000
    3.0398   -1.8391    0.0779 C   0  0  0  0  0  0  0  0  0  0  0  0
    1.7252   -1.1570    0.0450 C   0  0  0  0  0  0  0  0  0  0  0  0
    1.5158    0.1753   -0.0777 C   0  0  0  0  0  0  0  0  0  0  0  0
    0.1916    0.7593   -0.0980 C   0  0  0  0  0  0  0  0  0  0  0  0
    0.0434    1.9680   -0.2304 O   0  0  0  0  0  0  0  0  0  0  0  0
   -0.8878   -0.1214    0.0426 N   0  0  0  0  0  0  0  0  0  0  0  0
   -0.6951   -1.4860    0.1309 C   0  0  0  0  0  0  0  0  0  0  0  0
   -1.5689   -2.3306    0.1989 O   0  0  0  0  0  0  0  0  0  0  0  0
    0.6091   -1.9252    0.1424 N   0  0  0  0  0  0  0  0  0  0  0  0
   -2.2589    0.5028    0.0703 C   0  0  0  0  0  0  0  0  0  0  0  0
   -3.4002   -0.4958    0.2673 C   0  0  0  0  0  0  0  0  0  0  0  0
   -2.3128    1.4823    1.2491 C   0  0  0  0  0  0  0  0  0  0  0  0
   -2.4926    1.2078   -1.2704 C   0  0  0  0  0  0  0  0  0  0  0  0
    2.8123    1.3134   -0.2282 Cl  0  0  0  0  0  0  0  0  0  0  0  0
    3.8379   -1.1124   -0.0245 H   0  0  0  0  0  0  0  0  0  0  0  0
    3.1026   -2.5621   -0.7321 H   0  0  0  0  0  0  0  0  0  0  0  0
    3.1558   -2.3720    1.0189 H   0  0  0  0  0  0  0  0  0  0  0  0
    0.7048   -2.9337    0.2186 H   0  0  0  0  0  0  0  0  0  0  0  0
   -3.2995   -1.0467    1.1970 H   0  0  0  0  0  0  0  0  0  0  0  0
   -4.3259    0.0725    0.3021 H   0  0  0  0  0  0  0  0  0  0  0  0
   -3.4635   -1.2065   -0.5501 H   0  0  0  0  0  0  0  0  0  0  0  0
   -1.5958    2.2885    1.1337 H   0  0  0  0  0  0  0  0  0  0  0  0
   -2.1073    0.9557    2.1786 H   0  0  0  0  0  0  0  0  0  0  0  0
   -3.3066    1.9148    1.3060 H   0  0  0  0  0  0  0  0  0  0  0  0
   -2.4115    0.4913   -2.0849 H   0  0  0  0  0  0  0  0  0  0  0  0
   -3.4905    1.6345   -1.2793 H   0  0  0  0  0  0  0  0  0  0  0  0
   -1.7757    2.0069   -1.4296 H   0  0  0  0  0  0  0  0  0  0  0  0
  1  2  1  0  0  0  0
  2  3  2  0  0  0  0
  3  4  1  0  0  0  0
  4  5  2  0  0  0  0
  4  6  1  0  0  0  0
  6  7  1  0  0  0  0
  7  8  2  0  0  0  0
  2  9  1  0  0  0  0
  7  9  1  0  0  0  0
  6 10  1  0  0  0  0
 10 11  1  0  0  0  0
 10 12  1  0  0  0  0
 10 13  1  0  0  0  0
  3 14  1  0  0  0  0
  1 15  1  0  0  0  0
  1 16  1  0  0  0  0
  1 17  1  0  0  0  0
  9 18  1  0  0  0  0
 11 19  1  0  0  0  0
 11 20  1  0  0  0  0
 11 21  1  0  0  0  0
 12 22  1  0  0  0  0
 12 23  1  0  0  0  0
 12 24  1  0  0  0  0
 13 25  1  0  0  0  0
 13 26  1  0  0  0  0
 13 27  1  0  0  0  0
M  END
