 xtb: 6.7.1 (edcfbbe)
          04092505213D

 41 40  0     0  0            999 V2000
    5.2943    0.1225   -2.3385 C   0  0  0  0  0  0  0  0  0  0  0  0
    3.8276   -0.2247   -2.1817 C   0  0  0  0  0  0  0  0  0  0  0  0
    3.5554   -0.3844   -0.7750 O   0  0  0  0  0  0  0  0  0  0  0  0
    2.0917   -0.2487   -0.1750 P   0  0  0  0  0  0  0  0  0  0  0  0
    1.1159    1.3179   -0.8448 S   0  0  0  0  0  0  0  0  0  0  0  0
    2.3492   -0.3316    1.3816 O   0  0  0  0  0  0  0  0  0  0  0  0
    2.5905    0.8330    2.1960 C   0  0  0  0  0  0  0  0  0  0  0  0
    3.8695    1.5400    1.8040 C   0  0  0  0  0  0  0  0  0  0  0  0
    1.3219   -2.1792   -0.5286 S   0  0  0  0  0  0  0  0  0  0  0  0
   -0.3199   -2.0478    0.2298 C   0  0  0  0  0  0  0  0  0  0  0  0
   -1.5120   -1.1279   -0.7885 S   0  0  0  0  0  0  0  0  0  0  0  0
   -2.2643    0.1912    0.7105 P   0  0  0  0  0  0  0  0  0  0  0  0
   -0.9684    0.6600    2.1055 S   0  0  0  0  0  0  0  0  0  0  0  0
   -3.4969   -0.5312    1.3786 O   0  0  0  0  0  0  0  0  0  0  0  0
   -4.8339   -0.6204    0.8263 C   0  0  0  0  0  0  0  0  0  0  0  0
   -4.8776   -1.3662   -0.4904 C   0  0  0  0  0  0  0  0  0  0  0  0
   -2.9682    1.3834   -0.0556 O   0  0  0  0  0  0  0  0  0  0  0  0
   -2.2903    2.4218   -0.7886 C   0  0  0  0  0  0  0  0  0  0  0  0
   -2.2523    2.0987   -2.2684 C   0  0  0  0  0  0  0  0  0  0  0  0
    5.9075   -0.6575   -1.8968 H   0  0  0  0  0  0  0  0  0  0  0  0
    5.5275    0.2098   -3.3945 H   0  0  0  0  0  0  0  0  0  0  0  0
    5.5130    1.0648   -1.8440 H   0  0  0  0  0  0  0  0  0  0  0  0
    3.5844   -1.1657   -2.6818 H   0  0  0  0  0  0  0  0  0  0  0  0
    3.1821    0.5684   -2.5748 H   0  0  0  0  0  0  0  0  0  0  0  0
    1.7262    1.4999    2.1113 H   0  0  0  0  0  0  0  0  0  0  0  0
    2.6356    0.4325    3.2095 H   0  0  0  0  0  0  0  0  0  0  0  0
    4.0611    2.3481    2.5029 H   0  0  0  0  0  0  0  0  0  0  0  0
    4.7019    0.8412    1.8157 H   0  0  0  0  0  0  0  0  0  0  0  0
    3.7689    1.9548    0.8015 H   0  0  0  0  0  0  0  0  0  0  0  0
   -0.2330   -1.5492    1.1988 H   0  0  0  0  0  0  0  0  0  0  0  0
   -0.6719   -3.0702    0.3368 H   0  0  0  0  0  0  0  0  0  0  0  0
   -5.3865   -1.1470    1.6060 H   0  0  0  0  0  0  0  0  0  0  0  0
   -5.2223    0.3933    0.7148 H   0  0  0  0  0  0  0  0  0  0  0  0
   -4.4424   -2.3563   -0.3838 H   0  0  0  0  0  0  0  0  0  0  0  0
   -5.9123   -1.4630   -0.8045 H   0  0  0  0  0  0  0  0  0  0  0  0
   -4.3246   -0.8222   -1.2535 H   0  0  0  0  0  0  0  0  0  0  0  0
   -2.8779    3.3207   -0.5929 H   0  0  0  0  0  0  0  0  0  0  0  0
   -1.2808    2.5533   -0.3897 H   0  0  0  0  0  0  0  0  0  0  0  0
   -1.8118    2.9370   -2.7979 H   0  0  0  0  0  0  0  0  0  0  0  0
   -1.6421    1.2166   -2.4481 H   0  0  0  0  0  0  0  0  0  0  0  0
   -3.2573    1.9215   -2.6406 H   0  0  0  0  0  0  0  0  0  0  0  0
  1  2  1  0  0  0  0
  2  3  1  0  0  0  0
  3  4  2  0  0  0  0
  4  5  2  0  0  0  0
  4  6  2  0  0  0  0
  6  7  1  0  0  0  0
  7  8  1  0  0  0  0
  4  9  1  0  0  0  0
  9 10  1  0  0  0  0
 10 11  1  0  0  0  0
 11 12  1  0  0  0  0
 12 13  2  0  0  0  0
 12 14  2  0  0  0  0
 14 15  1  0  0  0  0
 15 16  1  0  0  0  0
 12 17  2  0  0  0  0
 17 18  1  0  0  0  0
 18 19  1  0  0  0  0
  1 20  1  0  0  0  0
  1 21  1  0  0  0  0
  1 22  1  0  0  0  0
  2 23  1  0  0  0  0
  2 24  1  0  0  0  0
  7 25  1  0  0  0  0
  7 26  1  0  0  0  0
  8 27  1  0  0  0  0
  8 28  1  0  0  0  0
  8 29  1  0  0  0  0
 10 30  1  0  0  0  0
 10 31  1  0  0  0  0
 15 32  1  0  0  0  0
 15 33  1  0  0  0  0
 16 34  1  0  0  0  0
 16 35  1  0  0  0  0
 16 36  1  0  0  0  0
 18 37  1  0  0  0  0
 18 38  1  0  0  0  0
 19 39  1  0  0  0  0
 19 40  1  0  0  0  0
 19 41  1  0  0  0  0
M  END
