 xtb: 6.7.1 (edcfbbe)
          04092505213D

 41 40  0     0  0            999 V2000
    3.0672    2.4252   -1.8561 C   0  0  0  0  0  0  0  0  0  0  0  0
    3.8189    2.1336   -0.5733 C   0  0  0  0  0  0  0  0  0  0  0  0
    3.6674    0.7623   -0.1719 O   0  0  0  0  0  0  0  0  0  0  0  0
    2.2924    0.1821    0.3796 P   0  0  0  0  0  0  0  0  0  0  0  0
    1.3822    1.4214    1.6033 S   0  0  0  0  0  0  0  0  0  0  0  0
    2.7552   -1.2048    0.9746 O   0  0  0  0  0  0  0  0  0  0  0  0
    2.9543   -1.4509    2.3855 C   0  0  0  0  0  0  0  0  0  0  0  0
    2.2874   -2.7608    2.7529 C   0  0  0  0  0  0  0  0  0  0  0  0
    1.2999   -0.4890   -1.3712 S   0  0  0  0  0  0  0  0  0  0  0  0
    0.4005   -1.9135   -0.6893 C   0  0  0  0  0  0  0  0  0  0  0  0
   -0.6172   -1.5109    0.7574 S   0  0  0  0  0  0  0  0  0  0  0  0
   -2.1235   -0.4051   -0.2386 P   0  0  0  0  0  0  0  0  0  0  0  0
   -2.4555   -0.8558   -2.1178 S   0  0  0  0  0  0  0  0  0  0  0  0
   -1.8330    1.1318    0.0501 O   0  0  0  0  0  0  0  0  0  0  0  0
   -1.2432    2.0487   -0.8877 C   0  0  0  0  0  0  0  0  0  0  0  0
   -2.3086    2.9341   -1.5028 C   0  0  0  0  0  0  0  0  0  0  0  0
   -3.2684   -0.7372    0.7982 O   0  0  0  0  0  0  0  0  0  0  0  0
   -4.6695   -0.6482    0.4650 C   0  0  0  0  0  0  0  0  0  0  0  0
   -5.1350    0.7883    0.3507 C   0  0  0  0  0  0  0  0  0  0  0  0
    1.9967    2.2977   -1.6934 H   0  0  0  0  0  0  0  0  0  0  0  0
    3.2590    3.4476   -2.1651 H   0  0  0  0  0  0  0  0  0  0  0  0
    3.3810    1.7431   -2.6419 H   0  0  0  0  0  0  0  0  0  0  0  0
    3.4608    2.7733    0.2404 H   0  0  0  0  0  0  0  0  0  0  0  0
    4.8955    2.2566   -0.6972 H   0  0  0  0  0  0  0  0  0  0  0  0
    4.0332   -1.4898    2.5479 H   0  0  0  0  0  0  0  0  0  0  0  0
    2.5301   -0.6164    2.9543 H   0  0  0  0  0  0  0  0  0  0  0  0
    1.2160   -2.6997    2.5715 H   0  0  0  0  0  0  0  0  0  0  0  0
    2.7020   -3.5709    2.1598 H   0  0  0  0  0  0  0  0  0  0  0  0
    2.4599   -2.9626    3.8049 H   0  0  0  0  0  0  0  0  0  0  0  0
    1.1102   -2.6740   -0.3756 H   0  0  0  0  0  0  0  0  0  0  0  0
   -0.2372   -2.2712   -1.4987 H   0  0  0  0  0  0  0  0  0  0  0  0
   -0.5267    2.6290   -0.3013 H   0  0  0  0  0  0  0  0  0  0  0  0
   -0.7161    1.4881   -1.6664 H   0  0  0  0  0  0  0  0  0  0  0  0
   -2.8794    3.4303   -0.7230 H   0  0  0  0  0  0  0  0  0  0  0  0
   -1.8297    3.6804   -2.1284 H   0  0  0  0  0  0  0  0  0  0  0  0
   -2.9790    2.3370   -2.1176 H   0  0  0  0  0  0  0  0  0  0  0  0
   -4.8363   -1.1873   -0.4732 H   0  0  0  0  0  0  0  0  0  0  0  0
   -5.1647   -1.1698    1.2854 H   0  0  0  0  0  0  0  0  0  0  0  0
   -6.2129    0.8077    0.2237 H   0  0  0  0  0  0  0  0  0  0  0  0
   -4.8654    1.3408    1.2472 H   0  0  0  0  0  0  0  0  0  0  0  0
   -4.6676    1.2637   -0.5095 H   0  0  0  0  0  0  0  0  0  0  0  0
  1  2  1  0  0  0  0
  2  3  1  0  0  0  0
  3  4  2  0  0  0  0
  4  5  2  0  0  0  0
  4  6  2  0  0  0  0
  6  7  1  0  0  0  0
  7  8  1  0  0  0  0
  4  9  1  0  0  0  0
  9 10  1  0  0  0  0
 10 11  1  0  0  0  0
 11 12  1  0  0  0  0
 12 13  2  0  0  0  0
 12 14  2  0  0  0  0
 14 15  1  0  0  0  0
 15 16  1  0  0  0  0
 12 17  2  0  0  0  0
 17 18  1  0  0  0  0
 18 19  1  0  0  0  0
  1 20  1  0  0  0  0
  1 21  1  0  0  0  0
  1 22  1  0  0  0  0
  2 23  1  0  0  0  0
  2 24  1  0  0  0  0
  7 25  1  0  0  0  0
  7 26  1  0  0  0  0
  8 27  1  0  0  0  0
  8 28  1  0  0  0  0
  8 29  1  0  0  0  0
 10 30  1  0  0  0  0
 10 31  1  0  0  0  0
 15 32  1  0  0  0  0
 15 33  1  0  0  0  0
 16 34  1  0  0  0  0
 16 35  1  0  0  0  0
 16 36  1  0  0  0  0
 18 37  1  0  0  0  0
 18 38  1  0  0  0  0
 19 39  1  0  0  0  0
 19 40  1  0  0  0  0
 19 41  1  0  0  0  0
M  END
