 xtb: 6.7.1 (edcfbbe)
          04092507313D

 38 37  0     0  0            999 V2000
    5.3907   -1.7248   -1.3386 C   0  0  0  0  0  0  0  0  0  0  0  0
    4.5754   -0.4527   -1.1692 C   0  0  0  0  0  0  0  0  0  0  0  0
    3.1651   -0.7253   -1.2815 O   0  0  0  0  0  0  0  0  0  0  0  0
    2.5082   -1.0892   -0.1983 C   0  0  0  0  0  0  0  0  0  0  0  0
    2.9994   -1.2096    0.9002 O   0  0  0  0  0  0  0  0  0  0  0  0
    1.0406   -1.3434   -0.5033 C   0  0  0  0  0  0  0  0  0  0  0  0
    0.4012   -0.1028   -1.1315 C   0  0  0  0  0  0  0  0  0  0  0  0
    0.9165    0.1482   -2.0621 H   0  0  0  0  0  0  0  0  0  0  0  0
    0.4610    1.0741   -0.1800 C   0  0  0  0  0  0  0  0  0  0  0  0
   -0.5411    1.5914    0.2780 O   0  0  0  0  0  0  0  0  0  0  0  0
    1.6798    1.4389    0.0900 O   0  0  0  0  0  0  0  0  0  0  0  0
    1.8852    2.4812    1.0731 C   0  0  0  0  0  0  0  0  0  0  0  0
    3.3224    2.3966    1.5454 C   0  0  0  0  0  0  0  0  0  0  0  0
   -1.3420   -0.3756   -1.5790 S   0  0  0  0  0  0  0  0  0  0  0  0
   -2.3144   -0.1539    0.2843 P   0  0  0  0  0  0  0  0  0  0  0  0
   -1.5514   -0.5981    2.0344 S   0  0  0  0  0  0  0  0  0  0  0  0
   -3.1756    1.1904    0.3454 O   0  0  0  0  0  0  0  0  0  0  0  0
   -3.7923    1.7425   -0.8298 C   0  0  0  0  0  0  0  0  0  0  0  0
   -3.4138   -1.2647   -0.1636 O   0  0  0  0  0  0  0  0  0  0  0  0
   -4.4480   -1.6618    0.7369 C   0  0  0  0  0  0  0  0  0  0  0  0
    5.1539   -2.1986   -2.2872 H   0  0  0  0  0  0  0  0  0  0  0  0
    6.4474   -1.4800   -1.3145 H   0  0  0  0  0  0  0  0  0  0  0  0
    5.1714   -2.4193   -0.5308 H   0  0  0  0  0  0  0  0  0  0  0  0
    4.7793    0.2594   -1.9687 H   0  0  0  0  0  0  0  0  0  0  0  0
    4.7652    0.0013   -0.1931 H   0  0  0  0  0  0  0  0  0  0  0  0
    0.5360   -1.6130    0.4276 H   0  0  0  0  0  0  0  0  0  0  0  0
    0.9643   -2.1711   -1.2095 H   0  0  0  0  0  0  0  0  0  0  0  0
    1.6682    3.4395    0.5933 H   0  0  0  0  0  0  0  0  0  0  0  0
    1.1742    2.3243    1.8899 H   0  0  0  0  0  0  0  0  0  0  0  0
    3.5180    1.4080    1.9540 H   0  0  0  0  0  0  0  0  0  0  0  0
    4.0002    2.5802    0.7172 H   0  0  0  0  0  0  0  0  0  0  0  0
    3.4886    3.1399    2.3177 H   0  0  0  0  0  0  0  0  0  0  0  0
   -4.6110    2.3593   -0.4670 H   0  0  0  0  0  0  0  0  0  0  0  0
   -4.1623    0.9481   -1.4796 H   0  0  0  0  0  0  0  0  0  0  0  0
   -3.0629    2.3509   -1.3633 H   0  0  0  0  0  0  0  0  0  0  0  0
   -4.0111   -2.0412    1.6627 H   0  0  0  0  0  0  0  0  0  0  0  0
   -4.9964   -2.4478    0.2241 H   0  0  0  0  0  0  0  0  0  0  0  0
   -5.1033   -0.8200    0.9658 H   0  0  0  0  0  0  0  0  0  0  0  0
  1  2  1  0  0  0  0
  2  3  1  0  0  0  0
  3  4  1  0  0  0  0
  4  5  2  0  0  0  0
  4  6  1  0  0  0  0
  6  7  1  0  0  0  0
  7  8  1  0  0  0  0
  7  9  1  0  0  0  0
  9 10  2  0  0  0  0
  9 11  4  0  0  0  0
 11 12  1  0  0  0  0
 12 13  1  0  0  0  0
  7 14  1  0  0  0  0
 14 15  1  0  0  0  0
 15 16  2  0  0  0  0
 15 17  1  0  0  0  0
 17 18  1  0  0  0  0
 15 19  1  0  0  0  0
 19 20  1  0  0  0  0
  1 21  1  0  0  0  0
  1 22  1  0  0  0  0
  1 23  1  0  0  0  0
  2 24  1  0  0  0  0
  2 25  1  0  0  0  0
  6 26  1  0  0  0  0
  6 27  1  0  0  0  0
 12 28  1  0  0  0  0
 12 29  1  0  0  0  0
 13 30  1  0  0  0  0
 13 31  1  0  0  0  0
 13 32  1  0  0  0  0
 18 33  1  0  0  0  0
 18 34  1  0  0  0  0
 18 35  1  0  0  0  0
 20 36  1  0  0  0  0
 20 37  1  0  0  0  0
 20 38  1  0  0  0  0
M  END
