 xtb: 6.7.1 (edcfbbe)
          04092505203D

 41 40  0     0  0            999 V2000
    1.5894   -2.8516    1.0978 C   0  0  0  0  0  0  0  0  0  0  0  0
    1.5323   -1.4663    1.7094 C   0  0  0  0  0  0  0  0  0  0  0  0
    2.5614   -0.6007    1.2050 O   0  0  0  0  0  0  0  0  0  0  0  0
    2.6164    0.0451   -0.2512 P   0  0  0  0  0  0  0  0  0  0  0  0
    2.9307   -1.1300   -1.7863 S   0  0  0  0  0  0  0  0  0  0  0  0
    3.8271    1.0364   -0.0903 O   0  0  0  0  0  0  0  0  0  0  0  0
    4.1591    1.7970    1.0977 C   0  0  0  0  0  0  0  0  0  0  0  0
    3.0686    2.7713    1.4881 C   0  0  0  0  0  0  0  0  0  0  0  0
    0.8520    1.2502   -0.4085 S   0  0  0  0  0  0  0  0  0  0  0  0
   -0.0067    0.3312   -1.7013 C   0  0  0  0  0  0  0  0  0  0  0  0
   -0.8674   -1.1445   -1.0846 S   0  0  0  0  0  0  0  0  0  0  0  0
   -2.3690   -0.1086   -0.0304 P   0  0  0  0  0  0  0  0  0  0  0  0
   -3.0919    1.5293   -0.8405 S   0  0  0  0  0  0  0  0  0  0  0  0
   -1.6468    0.0631    1.3687 O   0  0  0  0  0  0  0  0  0  0  0  0
   -2.1124    0.9869    2.3814 C   0  0  0  0  0  0  0  0  0  0  0  0
   -0.9440    1.8271    2.8566 C   0  0  0  0  0  0  0  0  0  0  0  0
   -3.4655   -1.2055    0.3231 O   0  0  0  0  0  0  0  0  0  0  0  0
   -4.5834   -1.4865   -0.5363 C   0  0  0  0  0  0  0  0  0  0  0  0
   -4.1529   -2.1399   -1.8336 C   0  0  0  0  0  0  0  0  0  0  0  0
    1.3675   -2.8093    0.0331 H   0  0  0  0  0  0  0  0  0  0  0  0
    2.5798   -3.2799    1.2285 H   0  0  0  0  0  0  0  0  0  0  0  0
    0.8545   -3.4860    1.5828 H   0  0  0  0  0  0  0  0  0  0  0  0
    1.7311   -1.5026    2.7827 H   0  0  0  0  0  0  0  0  0  0  0  0
    0.5562   -1.0036    1.5347 H   0  0  0  0  0  0  0  0  0  0  0  0
    4.3654    1.0929    1.9056 H   0  0  0  0  0  0  0  0  0  0  0  0
    5.0763    2.3137    0.8110 H   0  0  0  0  0  0  0  0  0  0  0  0
    3.4105    3.3707    2.3261 H   0  0  0  0  0  0  0  0  0  0  0  0
    2.8267    3.4256    0.6544 H   0  0  0  0  0  0  0  0  0  0  0  0
    2.1684    2.2344    1.7819 H   0  0  0  0  0  0  0  0  0  0  0  0
    0.7168   -0.0195   -2.4383 H   0  0  0  0  0  0  0  0  0  0  0  0
   -0.7338    1.0134   -2.1409 H   0  0  0  0  0  0  0  0  0  0  0  0
   -2.8987    1.6168    1.9534 H   0  0  0  0  0  0  0  0  0  0  0  0
   -2.5292    0.3804    3.1875 H   0  0  0  0  0  0  0  0  0  0  0  0
   -0.5497    2.4154    2.0311 H   0  0  0  0  0  0  0  0  0  0  0  0
   -1.2827    2.4949    3.6419 H   0  0  0  0  0  0  0  0  0  0  0  0
   -0.1563    1.1870    3.2439 H   0  0  0  0  0  0  0  0  0  0  0  0
   -5.2128   -2.1485    0.0598 H   0  0  0  0  0  0  0  0  0  0  0  0
   -5.1110   -0.5479   -0.7347 H   0  0  0  0  0  0  0  0  0  0  0  0
   -5.0319   -2.4405   -2.3949 H   0  0  0  0  0  0  0  0  0  0  0  0
   -3.5766   -1.4356   -2.4326 H   0  0  0  0  0  0  0  0  0  0  0  0
   -3.5365   -3.0123   -1.6315 H   0  0  0  0  0  0  0  0  0  0  0  0
  1  2  1  0  0  0  0
  2  3  1  0  0  0  0
  3  4  2  0  0  0  0
  4  5  2  0  0  0  0
  4  6  2  0  0  0  0
  6  7  1  0  0  0  0
  7  8  1  0  0  0  0
  4  9  1  0  0  0  0
  9 10  1  0  0  0  0
 10 11  1  0  0  0  0
 11 12  1  0  0  0  0
 12 13  2  0  0  0  0
 12 14  2  0  0  0  0
 14 15  1  0  0  0  0
 15 16  1  0  0  0  0
 12 17  2  0  0  0  0
 17 18  1  0  0  0  0
 18 19  1  0  0  0  0
  1 20  1  0  0  0  0
  1 21  1  0  0  0  0
  1 22  1  0  0  0  0
  2 23  1  0  0  0  0
  2 24  1  0  0  0  0
  7 25  1  0  0  0  0
  7 26  1  0  0  0  0
  8 27  1  0  0  0  0
  8 28  1  0  0  0  0
  8 29  1  0  0  0  0
 10 30  1  0  0  0  0
 10 31  1  0  0  0  0
 15 32  1  0  0  0  0
 15 33  1  0  0  0  0
 16 34  1  0  0  0  0
 16 35  1  0  0  0  0
 16 36  1  0  0  0  0
 18 37  1  0  0  0  0
 18 38  1  0  0  0  0
 19 39  1  0  0  0  0
 19 40  1  0  0  0  0
 19 41  1  0  0  0  0
M  END
