 xtb: 6.7.1 (edcfbbe)
          04092505213D

 41 40  0     0  0            999 V2000
    1.3646   -2.0347   -2.2741 C   0  0  0  0  0  0  0  0  0  0  0  0
    1.7307   -0.5758   -2.4536 C   0  0  0  0  0  0  0  0  0  0  0  0
    1.4837    0.2232   -1.2678 O   0  0  0  0  0  0  0  0  0  0  0  0
    2.1577   -0.0172    0.1401 P   0  0  0  0  0  0  0  0  0  0  0  0
    2.1908    1.6237    1.2117 S   0  0  0  0  0  0  0  0  0  0  0  0
    3.5525   -0.6421   -0.2907 O   0  0  0  0  0  0  0  0  0  0  0  0
    4.5153   -1.2031    0.6225 C   0  0  0  0  0  0  0  0  0  0  0  0
    5.3295   -0.1345    1.3240 C   0  0  0  0  0  0  0  0  0  0  0  0
    1.2045   -1.6560    1.1133 S   0  0  0  0  0  0  0  0  0  0  0  0
   -0.0638   -0.7784    2.0652 C   0  0  0  0  0  0  0  0  0  0  0  0
   -1.7451   -1.1706    1.5194 S   0  0  0  0  0  0  0  0  0  0  0  0
   -2.0066    0.2443   -0.0260 P   0  0  0  0  0  0  0  0  0  0  0  0
   -1.1953    2.0039    0.3191 S   0  0  0  0  0  0  0  0  0  0  0  0
   -3.5803    0.2666   -0.2334 O   0  0  0  0  0  0  0  0  0  0  0  0
   -4.4471    1.0359    0.6228 C   0  0  0  0  0  0  0  0  0  0  0  0
   -5.6953    1.3857   -0.1626 C   0  0  0  0  0  0  0  0  0  0  0  0
   -1.5268   -0.5650   -1.2995 O   0  0  0  0  0  0  0  0  0  0  0  0
   -2.0613   -0.3490   -2.6279 C   0  0  0  0  0  0  0  0  0  0  0  0
   -1.9106    1.0875   -3.0817 C   0  0  0  0  0  0  0  0  0  0  0  0
    0.3461   -2.1290   -1.9055 H   0  0  0  0  0  0  0  0  0  0  0  0
    1.4491   -2.5380   -3.2324 H   0  0  0  0  0  0  0  0  0  0  0  0
    2.0353   -2.5125   -1.5632 H   0  0  0  0  0  0  0  0  0  0  0  0
    1.1083   -0.0946   -3.2097 H   0  0  0  0  0  0  0  0  0  0  0  0
    2.7839   -0.4661   -2.7179 H   0  0  0  0  0  0  0  0  0  0  0  0
    3.9908   -1.8349    1.3440 H   0  0  0  0  0  0  0  0  0  0  0  0
    5.1473   -1.8224   -0.0174 H   0  0  0  0  0  0  0  0  0  0  0  0
    5.8122    0.5105    0.5944 H   0  0  0  0  0  0  0  0  0  0  0  0
    4.6899    0.4782    1.9553 H   0  0  0  0  0  0  0  0  0  0  0  0
    6.0862   -0.6099    1.9397 H   0  0  0  0  0  0  0  0  0  0  0  0
    0.1142    0.2992    1.9853 H   0  0  0  0  0  0  0  0  0  0  0  0
    0.0061   -1.1111    3.0974 H   0  0  0  0  0  0  0  0  0  0  0  0
   -4.6833    0.4241    1.4965 H   0  0  0  0  0  0  0  0  0  0  0  0
   -3.9107    1.9345    0.9465 H   0  0  0  0  0  0  0  0  0  0  0  0
   -5.4408    2.0025   -1.0200 H   0  0  0  0  0  0  0  0  0  0  0  0
   -6.1807    0.4787   -0.5103 H   0  0  0  0  0  0  0  0  0  0  0  0
   -6.3761    1.9340    0.4801 H   0  0  0  0  0  0  0  0  0  0  0  0
   -1.4814   -1.0311   -3.2517 H   0  0  0  0  0  0  0  0  0  0  0  0
   -3.1109   -0.6487   -2.6227 H   0  0  0  0  0  0  0  0  0  0  0  0
   -0.8761    1.4118   -2.9841 H   0  0  0  0  0  0  0  0  0  0  0  0
   -2.2220    1.1769   -4.1177 H   0  0  0  0  0  0  0  0  0  0  0  0
   -2.5261    1.7421   -2.4656 H   0  0  0  0  0  0  0  0  0  0  0  0
  1  2  1  0  0  0  0
  2  3  1  0  0  0  0
  3  4  2  0  0  0  0
  4  5  2  0  0  0  0
  4  6  2  0  0  0  0
  6  7  1  0  0  0  0
  7  8  1  0  0  0  0
  4  9  1  0  0  0  0
  9 10  1  0  0  0  0
 10 11  1  0  0  0  0
 11 12  1  0  0  0  0
 12 13  2  0  0  0  0
 12 14  2  0  0  0  0
 14 15  1  0  0  0  0
 15 16  1  0  0  0  0
 12 17  2  0  0  0  0
 17 18  1  0  0  0  0
 18 19  1  0  0  0  0
  1 20  1  0  0  0  0
  1 21  1  0  0  0  0
  1 22  1  0  0  0  0
  2 23  1  0  0  0  0
  2 24  1  0  0  0  0
  7 25  1  0  0  0  0
  7 26  1  0  0  0  0
  8 27  1  0  0  0  0
  8 28  1  0  0  0  0
  8 29  1  0  0  0  0
 10 30  1  0  0  0  0
 10 31  1  0  0  0  0
 15 32  1  0  0  0  0
 15 33  1  0  0  0  0
 16 34  1  0  0  0  0
 16 35  1  0  0  0  0
 16 36  1  0  0  0  0
 18 37  1  0  0  0  0
 18 38  1  0  0  0  0
 19 39  1  0  0  0  0
 19 40  1  0  0  0  0
 19 41  1  0  0  0  0
M  END
