 xtb: 6.7.1 (edcfbbe)
          04092505203D

 41 40  0     0  0            999 V2000
    2.6745   -0.3590    3.3646 C   0  0  0  0  0  0  0  0  0  0  0  0
    1.4050   -0.6852    2.6067 C   0  0  0  0  0  0  0  0  0  0  0  0
    1.2921    0.0970    1.4022 O   0  0  0  0  0  0  0  0  0  0  0  0
    2.2081   -0.1527    0.1348 P   0  0  0  0  0  0  0  0  0  0  0  0
    2.8916   -1.9757   -0.1158 S   0  0  0  0  0  0  0  0  0  0  0  0
    3.3181    0.9665    0.3313 O   0  0  0  0  0  0  0  0  0  0  0  0
    4.5562    0.9656   -0.4013 C   0  0  0  0  0  0  0  0  0  0  0  0
    4.3490    1.2508   -1.8748 C   0  0  0  0  0  0  0  0  0  0  0  0
    0.9490    0.6259   -1.3738 S   0  0  0  0  0  0  0  0  0  0  0  0
    0.0902   -0.9273   -1.7511 C   0  0  0  0  0  0  0  0  0  0  0  0
   -0.8388   -1.5918   -0.3435 S   0  0  0  0  0  0  0  0  0  0  0  0
   -2.1625    0.0529   -0.1272 P   0  0  0  0  0  0  0  0  0  0  0  0
   -2.7353    0.8944   -1.8058 S   0  0  0  0  0  0  0  0  0  0  0  0
   -1.4173    0.9913    0.9026 O   0  0  0  0  0  0  0  0  0  0  0  0
   -1.3883    2.4252    0.7785 C   0  0  0  0  0  0  0  0  0  0  0  0
   -2.6668    3.0339    1.3148 C   0  0  0  0  0  0  0  0  0  0  0  0
   -3.2812   -0.5390    0.8298 O   0  0  0  0  0  0  0  0  0  0  0  0
   -4.1733   -1.6045    0.4465 C   0  0  0  0  0  0  0  0  0  0  0  0
   -5.4109   -1.0684   -0.2471 C   0  0  0  0  0  0  0  0  0  0  0  0
    2.6828   -0.9019    4.3046 H   0  0  0  0  0  0  0  0  0  0  0  0
    3.5413   -0.6568    2.7755 H   0  0  0  0  0  0  0  0  0  0  0  0
    2.7325    0.7085    3.5601 H   0  0  0  0  0  0  0  0  0  0  0  0
    0.5092   -0.4246    3.1726 H   0  0  0  0  0  0  0  0  0  0  0  0
    1.3740   -1.7461    2.3361 H   0  0  0  0  0  0  0  0  0  0  0  0
    5.1462    1.7456    0.0817 H   0  0  0  0  0  0  0  0  0  0  0  0
    5.0381   -0.0076   -0.2630 H   0  0  0  0  0  0  0  0  0  0  0  0
    5.3142    1.3576   -2.3593 H   0  0  0  0  0  0  0  0  0  0  0  0
    3.8089    0.4281   -2.3417 H   0  0  0  0  0  0  0  0  0  0  0  0
    3.7745    2.1644   -2.0066 H   0  0  0  0  0  0  0  0  0  0  0  0
    0.8160   -1.6913   -2.0275 H   0  0  0  0  0  0  0  0  0  0  0  0
   -0.5931   -0.7083   -2.5711 H   0  0  0  0  0  0  0  0  0  0  0  0
   -0.5131    2.7274    1.3557 H   0  0  0  0  0  0  0  0  0  0  0  0
   -1.2423    2.6890   -0.2746 H   0  0  0  0  0  0  0  0  0  0  0  0
   -2.5993    4.1162    1.2699 H   0  0  0  0  0  0  0  0  0  0  0  0
   -3.5092    2.7037    0.7083 H   0  0  0  0  0  0  0  0  0  0  0  0
   -2.8299    2.7206    2.3423 H   0  0  0  0  0  0  0  0  0  0  0  0
   -3.6361   -2.3103   -0.1940 H   0  0  0  0  0  0  0  0  0  0  0  0
   -4.4274   -2.0921    1.3897 H   0  0  0  0  0  0  0  0  0  0  0  0
   -5.9210   -0.3566    0.3960 H   0  0  0  0  0  0  0  0  0  0  0  0
   -5.1402   -0.5694   -1.1749 H   0  0  0  0  0  0  0  0  0  0  0  0
   -6.0796   -1.8932   -0.4711 H   0  0  0  0  0  0  0  0  0  0  0  0
  1  2  1  0  0  0  0
  2  3  1  0  0  0  0
  3  4  2  0  0  0  0
  4  5  2  0  0  0  0
  4  6  2  0  0  0  0
  6  7  1  0  0  0  0
  7  8  1  0  0  0  0
  4  9  1  0  0  0  0
  9 10  1  0  0  0  0
 10 11  1  0  0  0  0
 11 12  1  0  0  0  0
 12 13  2  0  0  0  0
 12 14  2  0  0  0  0
 14 15  1  0  0  0  0
 15 16  1  0  0  0  0
 12 17  2  0  0  0  0
 17 18  1  0  0  0  0
 18 19  1  0  0  0  0
  1 20  1  0  0  0  0
  1 21  1  0  0  0  0
  1 22  1  0  0  0  0
  2 23  1  0  0  0  0
  2 24  1  0  0  0  0
  7 25  1  0  0  0  0
  7 26  1  0  0  0  0
  8 27  1  0  0  0  0
  8 28  1  0  0  0  0
  8 29  1  0  0  0  0
 10 30  1  0  0  0  0
 10 31  1  0  0  0  0
 15 32  1  0  0  0  0
 15 33  1  0  0  0  0
 16 34  1  0  0  0  0
 16 35  1  0  0  0  0
 16 36  1  0  0  0  0
 18 37  1  0  0  0  0
 18 38  1  0  0  0  0
 19 39  1  0  0  0  0
 19 40  1  0  0  0  0
 19 41  1  0  0  0  0
M  END
