 xtb: 6.7.1 (edcfbbe)
          04092505203D

 41 40  0     0  0            999 V2000
    5.2343   -2.1631   -1.6435 C   0  0  0  0  0  0  0  0  0  0  0  0
    4.1783   -1.0825   -1.7609 C   0  0  0  0  0  0  0  0  0  0  0  0
    3.1832   -1.3209   -0.7442 O   0  0  0  0  0  0  0  0  0  0  0  0
    2.2341   -0.1651   -0.2053 P   0  0  0  0  0  0  0  0  0  0  0  0
    3.1624    1.5029    0.2530 S   0  0  0  0  0  0  0  0  0  0  0  0
    1.4903   -0.9138    0.9681 O   0  0  0  0  0  0  0  0  0  0  0  0
    1.8900   -0.8190    2.3553 C   0  0  0  0  0  0  0  0  0  0  0  0
    0.6509   -0.6718    3.2147 C   0  0  0  0  0  0  0  0  0  0  0  0
    0.7394   -0.0422   -1.6865 S   0  0  0  0  0  0  0  0  0  0  0  0
    0.1010    1.5912   -1.2141 C   0  0  0  0  0  0  0  0  0  0  0  0
   -0.6116    1.6241    0.4496 S   0  0  0  0  0  0  0  0  0  0  0  0
   -2.1564    0.2281    0.0784 P   0  0  0  0  0  0  0  0  0  0  0  0
   -3.0187    0.3041   -1.6843 S   0  0  0  0  0  0  0  0  0  0  0  0
   -3.1325    0.3865    1.3209 O   0  0  0  0  0  0  0  0  0  0  0  0
   -4.2437    1.3000    1.3222 C   0  0  0  0  0  0  0  0  0  0  0  0
   -3.7949    2.7470    1.3330 C   0  0  0  0  0  0  0  0  0  0  0  0
   -1.4067   -1.1162    0.4463 O   0  0  0  0  0  0  0  0  0  0  0  0
   -1.7815   -2.3889   -0.1124 C   0  0  0  0  0  0  0  0  0  0  0  0
   -3.1080   -2.8697    0.4376 C   0  0  0  0  0  0  0  0  0  0  0  0
    4.7766   -3.1414   -1.7580 H   0  0  0  0  0  0  0  0  0  0  0  0
    5.9778   -2.0196   -2.4206 H   0  0  0  0  0  0  0  0  0  0  0  0
    5.7162   -2.1106   -0.6713 H   0  0  0  0  0  0  0  0  0  0  0  0
    3.6817   -1.1114   -2.7342 H   0  0  0  0  0  0  0  0  0  0  0  0
    4.6051   -0.0860   -1.6040 H   0  0  0  0  0  0  0  0  0  0  0  0
    2.4334   -1.7366    2.5906 H   0  0  0  0  0  0  0  0  0  0  0  0
    2.5587    0.0407    2.4723 H   0  0  0  0  0  0  0  0  0  0  0  0
    0.9420   -0.6753    4.2602 H   0  0  0  0  0  0  0  0  0  0  0  0
    0.1419    0.2619    2.9874 H   0  0  0  0  0  0  0  0  0  0  0  0
   -0.0331   -1.4940    3.0251 H   0  0  0  0  0  0  0  0  0  0  0  0
   -0.6631    1.8436   -1.9486 H   0  0  0  0  0  0  0  0  0  0  0  0
    0.9147    2.3158   -1.2173 H   0  0  0  0  0  0  0  0  0  0  0  0
   -4.8593    1.0962    0.4402 H   0  0  0  0  0  0  0  0  0  0  0  0
   -4.7934    1.0415    2.2282 H   0  0  0  0  0  0  0  0  0  0  0  0
   -4.6601    3.3908    1.4551 H   0  0  0  0  0  0  0  0  0  0  0  0
   -3.0966    2.9210    2.1478 H   0  0  0  0  0  0  0  0  0  0  0  0
   -3.3026    2.9922    0.3928 H   0  0  0  0  0  0  0  0  0  0  0  0
   -1.8243   -2.2919   -1.2026 H   0  0  0  0  0  0  0  0  0  0  0  0
   -0.9581   -3.0495    0.1637 H   0  0  0  0  0  0  0  0  0  0  0  0
   -3.0819   -2.8869    1.5240 H   0  0  0  0  0  0  0  0  0  0  0  0
   -3.9037   -2.1988    0.1155 H   0  0  0  0  0  0  0  0  0  0  0  0
   -3.3140   -3.8674    0.0630 H   0  0  0  0  0  0  0  0  0  0  0  0
  1  2  1  0  0  0  0
  2  3  1  0  0  0  0
  3  4  2  0  0  0  0
  4  5  2  0  0  0  0
  4  6  2  0  0  0  0
  6  7  1  0  0  0  0
  7  8  1  0  0  0  0
  4  9  1  0  0  0  0
  9 10  1  0  0  0  0
 10 11  1  0  0  0  0
 11 12  1  0  0  0  0
 12 13  2  0  0  0  0
 12 14  2  0  0  0  0
 14 15  1  0  0  0  0
 15 16  1  0  0  0  0
 12 17  2  0  0  0  0
 17 18  1  0  0  0  0
 18 19  1  0  0  0  0
  1 20  1  0  0  0  0
  1 21  1  0  0  0  0
  1 22  1  0  0  0  0
  2 23  1  0  0  0  0
  2 24  1  0  0  0  0
  7 25  1  0  0  0  0
  7 26  1  0  0  0  0
  8 27  1  0  0  0  0
  8 28  1  0  0  0  0
  8 29  1  0  0  0  0
 10 30  1  0  0  0  0
 10 31  1  0  0  0  0
 15 32  1  0  0  0  0
 15 33  1  0  0  0  0
 16 34  1  0  0  0  0
 16 35  1  0  0  0  0
 16 36  1  0  0  0  0
 18 37  1  0  0  0  0
 18 38  1  0  0  0  0
 19 39  1  0  0  0  0
 19 40  1  0  0  0  0
 19 41  1  0  0  0  0
M  END
