 xtb: 6.7.1 (edcfbbe)
          04092505203D

 41 40  0     0  0            999 V2000
    3.1325    1.2219   -2.0382 C   0  0  0  0  0  0  0  0  0  0  0  0
    2.2244    0.0476   -2.3345 C   0  0  0  0  0  0  0  0  0  0  0  0
    1.3722   -0.2852   -1.2168 O   0  0  0  0  0  0  0  0  0  0  0  0
    1.8840   -0.6481    0.2336 P   0  0  0  0  0  0  0  0  0  0  0  0
    2.5125    0.7564    1.4583 S   0  0  0  0  0  0  0  0  0  0  0  0
    2.9649   -1.7653   -0.1087 O   0  0  0  0  0  0  0  0  0  0  0  0
    3.8371   -2.3210    0.8967 C   0  0  0  0  0  0  0  0  0  0  0  0
    5.2134   -1.6909    0.8093 C   0  0  0  0  0  0  0  0  0  0  0  0
    0.2713   -1.7739    0.9861 S   0  0  0  0  0  0  0  0  0  0  0  0
   -0.5165   -0.5516    2.0852 C   0  0  0  0  0  0  0  0  0  0  0  0
   -2.2025   -0.1489    1.5874 S   0  0  0  0  0  0  0  0  0  0  0  0
   -1.7719    0.7773   -0.2827 P   0  0  0  0  0  0  0  0  0  0  0  0
   -0.3791    2.1511   -0.1792 S   0  0  0  0  0  0  0  0  0  0  0  0
   -3.1999    1.2987   -0.7378 O   0  0  0  0  0  0  0  0  0  0  0  0
   -3.8406    2.4012   -0.0626 C   0  0  0  0  0  0  0  0  0  0  0  0
   -4.9636    2.8992   -0.9492 C   0  0  0  0  0  0  0  0  0  0  0  0
   -1.4570   -0.3238   -1.3609 O   0  0  0  0  0  0  0  0  0  0  0  0
   -2.4202   -1.2023   -2.0002 C   0  0  0  0  0  0  0  0  0  0  0  0
   -3.0769   -2.1606   -1.0292 C   0  0  0  0  0  0  0  0  0  0  0  0
    2.5437    2.0725   -1.6981 H   0  0  0  0  0  0  0  0  0  0  0  0
    3.8420    0.9600   -1.2540 H   0  0  0  0  0  0  0  0  0  0  0  0
    3.6774    1.4965   -2.9358 H   0  0  0  0  0  0  0  0  0  0  0  0
    2.8009   -0.8424   -2.5971 H   0  0  0  0  0  0  0  0  0  0  0  0
    1.5136    0.2847   -3.1283 H   0  0  0  0  0  0  0  0  0  0  0  0
    3.3993   -2.1587    1.8852 H   0  0  0  0  0  0  0  0  0  0  0  0
    3.8700   -3.3901    0.6805 H   0  0  0  0  0  0  0  0  0  0  0  0
    5.6192   -1.8112   -0.1913 H   0  0  0  0  0  0  0  0  0  0  0  0
    5.1522   -0.6299    1.0429 H   0  0  0  0  0  0  0  0  0  0  0  0
    5.8721   -2.1715    1.5252 H   0  0  0  0  0  0  0  0  0  0  0  0
    0.1015    0.3515    2.0982 H   0  0  0  0  0  0  0  0  0  0  0  0
   -0.5923   -0.9885    3.0776 H   0  0  0  0  0  0  0  0  0  0  0  0
   -4.2172    2.0382    0.8972 H   0  0  0  0  0  0  0  0  0  0  0  0
   -3.0926    3.1803    0.1178 H   0  0  0  0  0  0  0  0  0  0  0  0
   -5.6774    2.1008   -1.1294 H   0  0  0  0  0  0  0  0  0  0  0  0
   -5.4651    3.7249   -0.4554 H   0  0  0  0  0  0  0  0  0  0  0  0
   -4.5653    3.2400   -1.9008 H   0  0  0  0  0  0  0  0  0  0  0  0
   -3.1615   -0.5811   -2.5052 H   0  0  0  0  0  0  0  0  0  0  0  0
   -1.8120   -1.7331   -2.7345 H   0  0  0  0  0  0  0  0  0  0  0  0
   -3.7284   -1.6247   -0.3427 H   0  0  0  0  0  0  0  0  0  0  0  0
   -3.6687   -2.8763   -1.5915 H   0  0  0  0  0  0  0  0  0  0  0  0
   -2.3225   -2.6946   -0.4551 H   0  0  0  0  0  0  0  0  0  0  0  0
  1  2  1  0  0  0  0
  2  3  1  0  0  0  0
  3  4  2  0  0  0  0
  4  5  2  0  0  0  0
  4  6  2  0  0  0  0
  6  7  1  0  0  0  0
  7  8  1  0  0  0  0
  4  9  1  0  0  0  0
  9 10  1  0  0  0  0
 10 11  1  0  0  0  0
 11 12  1  0  0  0  0
 12 13  2  0  0  0  0
 12 14  2  0  0  0  0
 14 15  1  0  0  0  0
 15 16  1  0  0  0  0
 12 17  2  0  0  0  0
 17 18  1  0  0  0  0
 18 19  1  0  0  0  0
  1 20  1  0  0  0  0
  1 21  1  0  0  0  0
  1 22  1  0  0  0  0
  2 23  1  0  0  0  0
  2 24  1  0  0  0  0
  7 25  1  0  0  0  0
  7 26  1  0  0  0  0
  8 27  1  0  0  0  0
  8 28  1  0  0  0  0
  8 29  1  0  0  0  0
 10 30  1  0  0  0  0
 10 31  1  0  0  0  0
 15 32  1  0  0  0  0
 15 33  1  0  0  0  0
 16 34  1  0  0  0  0
 16 35  1  0  0  0  0
 16 36  1  0  0  0  0
 18 37  1  0  0  0  0
 18 38  1  0  0  0  0
 19 39  1  0  0  0  0
 19 40  1  0  0  0  0
 19 41  1  0  0  0  0
M  END
