 xtb: 6.7.1 (edcfbbe)
          04092507313D

 38 37  0     0  0            999 V2000
    4.9313    0.4326   -1.1325 C   0  0  0  0  0  0  0  0  0  0  0  0
    4.5616   -1.0233   -1.3641 C   0  0  0  0  0  0  0  0  0  0  0  0
    3.1334   -1.2142   -1.3347 O   0  0  0  0  0  0  0  0  0  0  0  0
    2.5415   -1.3459   -0.1629 C   0  0  0  0  0  0  0  0  0  0  0  0
    3.1133   -1.3389    0.9022 O   0  0  0  0  0  0  0  0  0  0  0  0
    1.0445   -1.5546   -0.3216 C   0  0  0  0  0  0  0  0  0  0  0  0
    0.4158   -0.4185   -1.1308 C   0  0  0  0  0  0  0  0  0  0  0  0
    0.9113   -0.3378   -2.1018 H   0  0  0  0  0  0  0  0  0  0  0  0
    0.5239    0.8955   -0.3860 C   0  0  0  0  0  0  0  0  0  0  0  0
   -0.4548    1.5210   -0.0260 O   0  0  0  0  0  0  0  0  0  0  0  0
    1.7615    1.2490   -0.1860 O   0  0  0  0  0  0  0  0  0  0  0  0
    2.0208    2.3865    0.6677 C   0  0  0  0  0  0  0  0  0  0  0  0
    2.0518    1.9466    2.1219 C   0  0  0  0  0  0  0  0  0  0  0  0
   -1.3377   -0.7195   -1.4959 S   0  0  0  0  0  0  0  0  0  0  0  0
   -2.2905   -0.1728    0.3428 P   0  0  0  0  0  0  0  0  0  0  0  0
   -1.4021   -0.2679    2.0892 S   0  0  0  0  0  0  0  0  0  0  0  0
   -3.2287    1.0874    0.0456 O   0  0  0  0  0  0  0  0  0  0  0  0
   -2.9969    2.4551    0.3768 C   0  0  0  0  0  0  0  0  0  0  0  0
   -3.4154   -1.3040    0.3708 O   0  0  0  0  0  0  0  0  0  0  0  0
   -4.3545   -1.5226   -0.6943 C   0  0  0  0  0  0  0  0  0  0  0  0
    4.6454    0.7309   -0.1273 H   0  0  0  0  0  0  0  0  0  0  0  0
    6.0038    0.5516   -1.2455 H   0  0  0  0  0  0  0  0  0  0  0  0
    4.4203    1.0679   -1.8506 H   0  0  0  0  0  0  0  0  0  0  0  0
    5.0134   -1.6610   -0.5991 H   0  0  0  0  0  0  0  0  0  0  0  0
    4.8551   -1.3566   -2.3595 H   0  0  0  0  0  0  0  0  0  0  0  0
    0.5962   -1.6210    0.6725 H   0  0  0  0  0  0  0  0  0  0  0  0
    0.8812   -2.4931   -0.8539 H   0  0  0  0  0  0  0  0  0  0  0  0
    2.9914    2.7573    0.3390 H   0  0  0  0  0  0  0  0  0  0  0  0
    1.2442    3.1365    0.4992 H   0  0  0  0  0  0  0  0  0  0  0  0
    1.0729    1.5813    2.4297 H   0  0  0  0  0  0  0  0  0  0  0  0
    2.7698    1.1404    2.2544 H   0  0  0  0  0  0  0  0  0  0  0  0
    2.3302    2.7859    2.7499 H   0  0  0  0  0  0  0  0  0  0  0  0
   -2.4205    2.5295    1.2987 H   0  0  0  0  0  0  0  0  0  0  0  0
   -3.9840    2.8939    0.5071 H   0  0  0  0  0  0  0  0  0  0  0  0
   -2.4585    2.9431   -0.4334 H   0  0  0  0  0  0  0  0  0  0  0  0
   -3.8237   -1.7279   -1.6244 H   0  0  0  0  0  0  0  0  0  0  0  0
   -4.9930   -0.6491   -0.8125 H   0  0  0  0  0  0  0  0  0  0  0  0
   -4.9362   -2.3876   -0.3863 H   0  0  0  0  0  0  0  0  0  0  0  0
  1  2  1  0  0  0  0
  2  3  1  0  0  0  0
  3  4  1  0  0  0  0
  4  5  2  0  0  0  0
  4  6  1  0  0  0  0
  6  7  1  0  0  0  0
  7  8  1  0  0  0  0
  7  9  1  0  0  0  0
  9 10  2  0  0  0  0
  9 11  4  0  0  0  0
 11 12  1  0  0  0  0
 12 13  1  0  0  0  0
  7 14  1  0  0  0  0
 14 15  1  0  0  0  0
 15 16  2  0  0  0  0
 15 17  2  0  0  0  0
 17 18  1  0  0  0  0
 15 19  1  0  0  0  0
 19 20  1  0  0  0  0
  1 21  1  0  0  0  0
  1 22  1  0  0  0  0
  1 23  1  0  0  0  0
  2 24  1  0  0  0  0
  2 25  1  0  0  0  0
  6 26  1  0  0  0  0
  6 27  1  0  0  0  0
 12 28  1  0  0  0  0
 12 29  1  0  0  0  0
 13 30  1  0  0  0  0
 13 31  1  0  0  0  0
 13 32  1  0  0  0  0
 18 33  1  0  0  0  0
 18 34  1  0  0  0  0
 18 35  1  0  0  0  0
 20 36  1  0  0  0  0
 20 37  1  0  0  0  0
 20 38  1  0  0  0  0
M  END
