 xtb: 6.7.1 (edcfbbe)
          04092505203D

 41 40  0     0  0            999 V2000
    2.2245   -1.7907    2.9216 C   0  0  0  0  0  0  0  0  0  0  0  0
    0.9919   -1.6914    2.0488 C   0  0  0  0  0  0  0  0  0  0  0  0
    0.9690   -0.4517    1.3107 O   0  0  0  0  0  0  0  0  0  0  0  0
    2.0035   -0.1499    0.1520 P   0  0  0  0  0  0  0  0  0  0  0  0
    2.7178   -1.7093   -0.8041 S   0  0  0  0  0  0  0  0  0  0  0  0
    3.0364    0.7796    0.9205 O   0  0  0  0  0  0  0  0  0  0  0  0
    4.1651    1.3992    0.2721 C   0  0  0  0  0  0  0  0  0  0  0  0
    5.3944    0.5144    0.3507 C   0  0  0  0  0  0  0  0  0  0  0  0
    0.9363    1.2469   -1.0327 S   0  0  0  0  0  0  0  0  0  0  0  0
    0.1584    0.0377   -2.1374 C   0  0  0  0  0  0  0  0  0  0  0  0
   -0.9108   -1.1278   -1.2656 S   0  0  0  0  0  0  0  0  0  0  0  0
   -2.3624    0.2898   -0.5953 P   0  0  0  0  0  0  0  0  0  0  0  0
   -2.6689    1.8268   -1.7620 S   0  0  0  0  0  0  0  0  0  0  0  0
   -1.9545    0.6570    0.9012 O   0  0  0  0  0  0  0  0  0  0  0  0
   -1.4387    1.9263    1.3317 C   0  0  0  0  0  0  0  0  0  0  0  0
   -2.3871    2.5266    2.3506 C   0  0  0  0  0  0  0  0  0  0  0  0
   -3.6600   -0.5868   -0.4238 O   0  0  0  0  0  0  0  0  0  0  0  0
   -3.7220   -1.9670    0.0076 C   0  0  0  0  0  0  0  0  0  0  0  0
   -3.1647   -2.1600    1.4010 C   0  0  0  0  0  0  0  0  0  0  0  0
    3.1145   -1.8255    2.2940 H   0  0  0  0  0  0  0  0  0  0  0  0
    2.2916   -0.9273    3.5781 H   0  0  0  0  0  0  0  0  0  0  0  0
    2.1748   -2.6975    3.5160 H   0  0  0  0  0  0  0  0  0  0  0  0
    0.0763   -1.6617    2.6414 H   0  0  0  0  0  0  0  0  0  0  0  0
    0.9498   -2.5214    1.3360 H   0  0  0  0  0  0  0  0  0  0  0  0
    3.9063    1.6233   -0.7668 H   0  0  0  0  0  0  0  0  0  0  0  0
    4.3123    2.3330    0.8180 H   0  0  0  0  0  0  0  0  0  0  0  0
    5.6226    0.2827    1.3873 H   0  0  0  0  0  0  0  0  0  0  0  0
    5.2268   -0.4153   -0.1887 H   0  0  0  0  0  0  0  0  0  0  0  0
    6.2369    1.0337   -0.0945 H   0  0  0  0  0  0  0  0  0  0  0  0
    0.9269   -0.5584   -2.6289 H   0  0  0  0  0  0  0  0  0  0  0  0
   -0.4282    0.6105   -2.8552 H   0  0  0  0  0  0  0  0  0  0  0  0
   -0.4534    1.7310    1.7625 H   0  0  0  0  0  0  0  0  0  0  0  0
   -1.3309    2.5863    0.4640 H   0  0  0  0  0  0  0  0  0  0  0  0
   -3.3547    2.7120    1.8898 H   0  0  0  0  0  0  0  0  0  0  0  0
   -2.5179    1.8475    3.1881 H   0  0  0  0  0  0  0  0  0  0  0  0
   -1.9768    3.4656    2.7078 H   0  0  0  0  0  0  0  0  0  0  0  0
   -4.7879   -2.1952   -0.0396 H   0  0  0  0  0  0  0  0  0  0  0  0
   -3.1789   -2.5780   -0.7185 H   0  0  0  0  0  0  0  0  0  0  0  0
   -3.6861   -1.5200    2.1075 H   0  0  0  0  0  0  0  0  0  0  0  0
   -3.2873   -3.1981    1.6936 H   0  0  0  0  0  0  0  0  0  0  0  0
   -2.1058   -1.9096    1.4117 H   0  0  0  0  0  0  0  0  0  0  0  0
  1  2  1  0  0  0  0
  2  3  1  0  0  0  0
  3  4  2  0  0  0  0
  4  5  2  0  0  0  0
  4  6  2  0  0  0  0
  6  7  1  0  0  0  0
  7  8  1  0  0  0  0
  4  9  1  0  0  0  0
  9 10  1  0  0  0  0
 10 11  1  0  0  0  0
 11 12  1  0  0  0  0
 12 13  2  0  0  0  0
 12 14  2  0  0  0  0
 14 15  1  0  0  0  0
 15 16  1  0  0  0  0
 12 17  2  0  0  0  0
 17 18  1  0  0  0  0
 18 19  1  0  0  0  0
  1 20  1  0  0  0  0
  1 21  1  0  0  0  0
  1 22  1  0  0  0  0
  2 23  1  0  0  0  0
  2 24  1  0  0  0  0
  7 25  1  0  0  0  0
  7 26  1  0  0  0  0
  8 27  1  0  0  0  0
  8 28  1  0  0  0  0
  8 29  1  0  0  0  0
 10 30  1  0  0  0  0
 10 31  1  0  0  0  0
 15 32  1  0  0  0  0
 15 33  1  0  0  0  0
 16 34  1  0  0  0  0
 16 35  1  0  0  0  0
 16 36  1  0  0  0  0
 18 37  1  0  0  0  0
 18 38  1  0  0  0  0
 19 39  1  0  0  0  0
 19 40  1  0  0  0  0
 19 41  1  0  0  0  0
M  END
