 xtb: 6.7.1 (edcfbbe)
          04092505203D

 41 40  0     0  0            999 V2000
    4.5608    1.1141   -1.9631 C   0  0  0  0  0  0  0  0  0  0  0  0
    4.7424    0.3233   -0.6850 C   0  0  0  0  0  0  0  0  0  0  0  0
    3.6680    0.5246    0.2540 O   0  0  0  0  0  0  0  0  0  0  0  0
    2.1237    0.3207   -0.0557 P   0  0  0  0  0  0  0  0  0  0  0  0
    1.1812    1.7441   -1.0143 S   0  0  0  0  0  0  0  0  0  0  0  0
    1.5329    0.1751    1.3967 O   0  0  0  0  0  0  0  0  0  0  0  0
    2.0311   -0.7852    2.3663 C   0  0  0  0  0  0  0  0  0  0  0  0
    0.9503   -0.9978    3.4053 C   0  0  0  0  0  0  0  0  0  0  0  0
    2.0771   -1.5992   -0.9710 S   0  0  0  0  0  0  0  0  0  0  0  0
    0.3269   -1.6105   -1.4030 C   0  0  0  0  0  0  0  0  0  0  0  0
   -0.7522   -1.8031    0.0569 S   0  0  0  0  0  0  0  0  0  0  0  0
   -1.9208   -0.0599   -0.0692 P   0  0  0  0  0  0  0  0  0  0  0  0
   -2.1987    0.6787   -1.8684 S   0  0  0  0  0  0  0  0  0  0  0  0
   -1.2825    0.8697    1.0370 O   0  0  0  0  0  0  0  0  0  0  0  0
   -1.5342    2.2866    1.0917 C   0  0  0  0  0  0  0  0  0  0  0  0
   -2.9770    2.5898    1.4323 C   0  0  0  0  0  0  0  0  0  0  0  0
   -3.2565   -0.5208    0.6611 O   0  0  0  0  0  0  0  0  0  0  0  0
   -4.2401   -1.3353   -0.0062 C   0  0  0  0  0  0  0  0  0  0  0  0
   -5.5483   -1.2008    0.7468 C   0  0  0  0  0  0  0  0  0  0  0  0
    5.4324    0.9825   -2.5960 H   0  0  0  0  0  0  0  0  0  0  0  0
    3.6780    0.7669   -2.4984 H   0  0  0  0  0  0  0  0  0  0  0  0
    4.4316    2.1710   -1.7416 H   0  0  0  0  0  0  0  0  0  0  0  0
    5.6261    0.6509   -0.1347 H   0  0  0  0  0  0  0  0  0  0  0  0
    4.8100   -0.7469   -0.8980 H   0  0  0  0  0  0  0  0  0  0  0  0
    2.2715   -1.7169    1.8453 H   0  0  0  0  0  0  0  0  0  0  0  0
    2.9394   -0.3685    2.8050 H   0  0  0  0  0  0  0  0  0  0  0  0
    0.0517   -1.3908    2.9358 H   0  0  0  0  0  0  0  0  0  0  0  0
    1.3057   -1.7050    4.1477 H   0  0  0  0  0  0  0  0  0  0  0  0
    0.7063   -0.0564    3.8889 H   0  0  0  0  0  0  0  0  0  0  0  0
    0.1780   -2.4724   -2.0482 H   0  0  0  0  0  0  0  0  0  0  0  0
    0.0603   -0.6815   -1.9154 H   0  0  0  0  0  0  0  0  0  0  0  0
   -0.8451    2.6415    1.8596 H   0  0  0  0  0  0  0  0  0  0  0  0
   -1.2557    2.7259    0.1276 H   0  0  0  0  0  0  0  0  0  0  0  0
   -3.0970    3.6608    1.5623 H   0  0  0  0  0  0  0  0  0  0  0  0
   -3.6235    2.2567    0.6211 H   0  0  0  0  0  0  0  0  0  0  0  0
   -3.2620    2.0754    2.3462 H   0  0  0  0  0  0  0  0  0  0  0  0
   -4.3332   -0.9902   -1.0417 H   0  0  0  0  0  0  0  0  0  0  0  0
   -3.8834   -2.3690   -0.0046 H   0  0  0  0  0  0  0  0  0  0  0  0
   -5.8899   -0.1698    0.7251 H   0  0  0  0  0  0  0  0  0  0  0  0
   -6.2941   -1.8346    0.2786 H   0  0  0  0  0  0  0  0  0  0  0  0
   -5.4125   -1.5054    1.7803 H   0  0  0  0  0  0  0  0  0  0  0  0
  1  2  1  0  0  0  0
  2  3  1  0  0  0  0
  3  4  2  0  0  0  0
  4  5  2  0  0  0  0
  4  6  2  0  0  0  0
  6  7  1  0  0  0  0
  7  8  1  0  0  0  0
  4  9  1  0  0  0  0
  9 10  1  0  0  0  0
 10 11  1  0  0  0  0
 11 12  1  0  0  0  0
 12 13  2  0  0  0  0
 12 14  2  0  0  0  0
 14 15  1  0  0  0  0
 15 16  1  0  0  0  0
 12 17  2  0  0  0  0
 17 18  1  0  0  0  0
 18 19  1  0  0  0  0
  1 20  1  0  0  0  0
  1 21  1  0  0  0  0
  1 22  1  0  0  0  0
  2 23  1  0  0  0  0
  2 24  1  0  0  0  0
  7 25  1  0  0  0  0
  7 26  1  0  0  0  0
  8 27  1  0  0  0  0
  8 28  1  0  0  0  0
  8 29  1  0  0  0  0
 10 30  1  0  0  0  0
 10 31  1  0  0  0  0
 15 32  1  0  0  0  0
 15 33  1  0  0  0  0
 16 34  1  0  0  0  0
 16 35  1  0  0  0  0
 16 36  1  0  0  0  0
 18 37  1  0  0  0  0
 18 38  1  0  0  0  0
 19 39  1  0  0  0  0
 19 40  1  0  0  0  0
 19 41  1  0  0  0  0
M  END
