 xtb: 6.7.1 (edcfbbe)
          04092505203D

 41 40  0     0  0            999 V2000
    4.6613   -1.5286   -1.0268 C   0  0  0  0  0  0  0  0  0  0  0  0
    4.7052   -0.0969   -0.5334 C   0  0  0  0  0  0  0  0  0  0  0  0
    3.5682    0.2292    0.2850 O   0  0  0  0  0  0  0  0  0  0  0  0
    2.0902    0.3289   -0.3016 P   0  0  0  0  0  0  0  0  0  0  0  0
    2.0167    1.1255   -2.0968 S   0  0  0  0  0  0  0  0  0  0  0  0
    1.3704    1.0968    0.8809 O   0  0  0  0  0  0  0  0  0  0  0  0
    1.5361    2.5207    1.0560 C   0  0  0  0  0  0  0  0  0  0  0  0
    0.6734    2.9414    2.2262 C   0  0  0  0  0  0  0  0  0  0  0  0
    1.2986   -1.5960   -0.0506 S   0  0  0  0  0  0  0  0  0  0  0  0
    0.0663   -1.6156   -1.3999 C   0  0  0  0  0  0  0  0  0  0  0  0
   -1.6223   -1.8588   -0.8124 S   0  0  0  0  0  0  0  0  0  0  0  0
   -1.8871    0.0095    0.1706 P   0  0  0  0  0  0  0  0  0  0  0  0
   -1.3439    1.5867   -0.8525 S   0  0  0  0  0  0  0  0  0  0  0  0
   -1.1425   -0.1107    1.5511 O   0  0  0  0  0  0  0  0  0  0  0  0
   -1.3426   -1.1961    2.4919 C   0  0  0  0  0  0  0  0  0  0  0  0
   -2.3565   -0.8128    3.5494 C   0  0  0  0  0  0  0  0  0  0  0  0
   -3.4168   -0.0095    0.6020 O   0  0  0  0  0  0  0  0  0  0  0  0
   -4.4887    0.3009   -0.3076 C   0  0  0  0  0  0  0  0  0  0  0  0
   -5.0146   -0.9445   -0.9934 C   0  0  0  0  0  0  0  0  0  0  0  0
    4.5148   -2.2117   -0.1940 H   0  0  0  0  0  0  0  0  0  0  0  0
    3.8411   -1.6515   -1.7328 H   0  0  0  0  0  0  0  0  0  0  0  0
    5.5948   -1.7629   -1.5282 H   0  0  0  0  0  0  0  0  0  0  0  0
    4.7321    0.5997   -1.3775 H   0  0  0  0  0  0  0  0  0  0  0  0
    5.5579    0.0792    0.1236 H   0  0  0  0  0  0  0  0  0  0  0  0
    2.5948    2.7261    1.2365 H   0  0  0  0  0  0  0  0  0  0  0  0
    1.2246    3.0173    0.1303 H   0  0  0  0  0  0  0  0  0  0  0  0
    0.7716    4.0116    2.3756 H   0  0  0  0  0  0  0  0  0  0  0  0
   -0.3662    2.7008    2.0167 H   0  0  0  0  0  0  0  0  0  0  0  0
    0.9835    2.4152    3.1242 H   0  0  0  0  0  0  0  0  0  0  0  0
    0.2837   -2.4658   -2.0412 H   0  0  0  0  0  0  0  0  0  0  0  0
    0.1394   -0.6750   -1.9533 H   0  0  0  0  0  0  0  0  0  0  0  0
   -1.6595   -2.0879    1.9438 H   0  0  0  0  0  0  0  0  0  0  0  0
   -0.3535   -1.3635    2.9231 H   0  0  0  0  0  0  0  0  0  0  0  0
   -3.3283   -0.6410    3.0949 H   0  0  0  0  0  0  0  0  0  0  0  0
   -2.4349   -1.6202    4.2707 H   0  0  0  0  0  0  0  0  0  0  0  0
   -2.0422    0.0940    4.0588 H   0  0  0  0  0  0  0  0  0  0  0  0
   -5.2538    0.7578    0.3227 H   0  0  0  0  0  0  0  0  0  0  0  0
   -4.1303    1.0373   -1.0344 H   0  0  0  0  0  0  0  0  0  0  0  0
   -5.3036   -1.6844   -0.2526 H   0  0  0  0  0  0  0  0  0  0  0  0
   -5.8805   -0.6786   -1.5913 H   0  0  0  0  0  0  0  0  0  0  0  0
   -4.2554   -1.3765   -1.6410 H   0  0  0  0  0  0  0  0  0  0  0  0
  1  2  1  0  0  0  0
  2  3  1  0  0  0  0
  3  4  2  0  0  0  0
  4  5  2  0  0  0  0
  4  6  2  0  0  0  0
  6  7  1  0  0  0  0
  7  8  1  0  0  0  0
  4  9  1  0  0  0  0
  9 10  1  0  0  0  0
 10 11  1  0  0  0  0
 11 12  1  0  0  0  0
 12 13  2  0  0  0  0
 12 14  2  0  0  0  0
 14 15  1  0  0  0  0
 15 16  1  0  0  0  0
 12 17  2  0  0  0  0
 17 18  1  0  0  0  0
 18 19  1  0  0  0  0
  1 20  1  0  0  0  0
  1 21  1  0  0  0  0
  1 22  1  0  0  0  0
  2 23  1  0  0  0  0
  2 24  1  0  0  0  0
  7 25  1  0  0  0  0
  7 26  1  0  0  0  0
  8 27  1  0  0  0  0
  8 28  1  0  0  0  0
  8 29  1  0  0  0  0
 10 30  1  0  0  0  0
 10 31  1  0  0  0  0
 15 32  1  0  0  0  0
 15 33  1  0  0  0  0
 16 34  1  0  0  0  0
 16 35  1  0  0  0  0
 16 36  1  0  0  0  0
 18 37  1  0  0  0  0
 18 38  1  0  0  0  0
 19 39  1  0  0  0  0
 19 40  1  0  0  0  0
 19 41  1  0  0  0  0
M  END
