 xtb: 6.7.1 (edcfbbe)
          04092505213D

 41 40  0     0  0            999 V2000
    5.3605    1.1068    0.3688 C   0  0  0  0  0  0  0  0  0  0  0  0
    4.3859    1.6931   -0.6327 C   0  0  0  0  0  0  0  0  0  0  0  0
    3.3957    0.7295   -1.0396 O   0  0  0  0  0  0  0  0  0  0  0  0
    2.2631    0.2124   -0.0521 P   0  0  0  0  0  0  0  0  0  0  0  0
    1.6724    1.5407    1.2649 S   0  0  0  0  0  0  0  0  0  0  0  0
    2.8142   -1.1435    0.5733 O   0  0  0  0  0  0  0  0  0  0  0  0
    2.8906   -1.4386    1.9842 C   0  0  0  0  0  0  0  0  0  0  0  0
    1.9514   -2.5697    2.3511 C   0  0  0  0  0  0  0  0  0  0  0  0
    0.9966   -0.4500   -1.6035 S   0  0  0  0  0  0  0  0  0  0  0  0
    0.0575   -1.7121   -0.6891 C   0  0  0  0  0  0  0  0  0  0  0  0
   -0.9145   -1.0386    0.6754 S   0  0  0  0  0  0  0  0  0  0  0  0
   -2.3583   -0.0190   -0.5198 P   0  0  0  0  0  0  0  0  0  0  0  0
   -2.7526   -0.8441   -2.2478 S   0  0  0  0  0  0  0  0  0  0  0  0
   -1.8317    1.4496   -0.7504 O   0  0  0  0  0  0  0  0  0  0  0  0
   -1.6024    2.4049    0.3116 C   0  0  0  0  0  0  0  0  0  0  0  0
   -2.7812    3.3455    0.4446 C   0  0  0  0  0  0  0  0  0  0  0  0
   -3.5501    0.2131    0.5035 O   0  0  0  0  0  0  0  0  0  0  0  0
   -4.1445   -0.8063    1.3313 C   0  0  0  0  0  0  0  0  0  0  0  0
   -4.6096   -2.0101    0.5399 C   0  0  0  0  0  0  0  0  0  0  0  0
    6.1538    1.8225    0.5606 H   0  0  0  0  0  0  0  0  0  0  0  0
    4.8446    0.8920    1.3041 H   0  0  0  0  0  0  0  0  0  0  0  0
    5.7894    0.1872   -0.0210 H   0  0  0  0  0  0  0  0  0  0  0  0
    4.8796    1.9724   -1.5644 H   0  0  0  0  0  0  0  0  0  0  0  0
    3.8728    2.5624   -0.2081 H   0  0  0  0  0  0  0  0  0  0  0  0
    3.9309   -1.7171    2.1637 H   0  0  0  0  0  0  0  0  0  0  0  0
    2.6476   -0.5315    2.5481 H   0  0  0  0  0  0  0  0  0  0  0  0
    0.9149   -2.2653    2.2147 H   0  0  0  0  0  0  0  0  0  0  0  0
    2.1550   -3.4434    1.7380 H   0  0  0  0  0  0  0  0  0  0  0  0
    2.1057   -2.8259    3.3943 H   0  0  0  0  0  0  0  0  0  0  0  0
    0.7391   -2.4486   -0.2717 H   0  0  0  0  0  0  0  0  0  0  0  0
   -0.6178   -2.1589   -1.4208 H   0  0  0  0  0  0  0  0  0  0  0  0
   -1.4091    1.8698    1.2458 H   0  0  0  0  0  0  0  0  0  0  0  0
   -0.6966    2.9389    0.0164 H   0  0  0  0  0  0  0  0  0  0  0  0
   -2.9653    3.8438   -0.5032 H   0  0  0  0  0  0  0  0  0  0  0  0
   -3.6728    2.7932    0.7297 H   0  0  0  0  0  0  0  0  0  0  0  0
   -2.5564    4.0872    1.2045 H   0  0  0  0  0  0  0  0  0  0  0  0
   -3.4117   -1.0992    2.0883 H   0  0  0  0  0  0  0  0  0  0  0  0
   -4.9827   -0.2931    1.8058 H   0  0  0  0  0  0  0  0  0  0  0  0
   -3.7574   -2.5191    0.0920 H   0  0  0  0  0  0  0  0  0  0  0  0
   -5.1261   -2.6978    1.2016 H   0  0  0  0  0  0  0  0  0  0  0  0
   -5.2815   -1.7031   -0.2581 H   0  0  0  0  0  0  0  0  0  0  0  0
  1  2  1  0  0  0  0
  2  3  1  0  0  0  0
  3  4  2  0  0  0  0
  4  5  2  0  0  0  0
  4  6  2  0  0  0  0
  6  7  1  0  0  0  0
  7  8  1  0  0  0  0
  4  9  1  0  0  0  0
  9 10  1  0  0  0  0
 10 11  1  0  0  0  0
 11 12  1  0  0  0  0
 12 13  2  0  0  0  0
 12 14  2  0  0  0  0
 14 15  1  0  0  0  0
 15 16  1  0  0  0  0
 12 17  2  0  0  0  0
 17 18  1  0  0  0  0
 18 19  1  0  0  0  0
  1 20  1  0  0  0  0
  1 21  1  0  0  0  0
  1 22  1  0  0  0  0
  2 23  1  0  0  0  0
  2 24  1  0  0  0  0
  7 25  1  0  0  0  0
  7 26  1  0  0  0  0
  8 27  1  0  0  0  0
  8 28  1  0  0  0  0
  8 29  1  0  0  0  0
 10 30  1  0  0  0  0
 10 31  1  0  0  0  0
 15 32  1  0  0  0  0
 15 33  1  0  0  0  0
 16 34  1  0  0  0  0
 16 35  1  0  0  0  0
 16 36  1  0  0  0  0
 18 37  1  0  0  0  0
 18 38  1  0  0  0  0
 19 39  1  0  0  0  0
 19 40  1  0  0  0  0
 19 41  1  0  0  0  0
M  END
