 xtb: 6.7.1 (edcfbbe)
          04092505203D

 41 40  0     0  0            999 V2000
    4.5394   -1.7242   -0.8225 C   0  0  0  0  0  0  0  0  0  0  0  0
    4.6554   -0.3044   -0.3064 C   0  0  0  0  0  0  0  0  0  0  0  0
    3.5110    0.0892    0.4697 O   0  0  0  0  0  0  0  0  0  0  0  0
    2.0705    0.3050   -0.1708 P   0  0  0  0  0  0  0  0  0  0  0  0
    2.0922    1.1073   -1.9629 S   0  0  0  0  0  0  0  0  0  0  0  0
    1.3405    1.0976    0.9911 O   0  0  0  0  0  0  0  0  0  0  0  0
    1.3747    2.5331    1.0915 C   0  0  0  0  0  0  0  0  0  0  0  0
    2.7641    3.0529    1.3919 C   0  0  0  0  0  0  0  0  0  0  0  0
    1.1794   -1.5849    0.0502 S   0  0  0  0  0  0  0  0  0  0  0  0
   -0.0483   -1.5584   -1.3053 C   0  0  0  0  0  0  0  0  0  0  0  0
   -1.7364   -1.8047   -0.7193 S   0  0  0  0  0  0  0  0  0  0  0  0
   -2.0127    0.0918    0.1983 P   0  0  0  0  0  0  0  0  0  0  0  0
   -1.3441    1.6146   -0.8389 S   0  0  0  0  0  0  0  0  0  0  0  0
   -1.3626    0.0239    1.6301 O   0  0  0  0  0  0  0  0  0  0  0  0
   -1.3780   -1.1051    2.5420 C   0  0  0  0  0  0  0  0  0  0  0  0
   -2.7665   -1.6510    2.7905 C   0  0  0  0  0  0  0  0  0  0  0  0
   -3.5642    0.1697    0.5241 O   0  0  0  0  0  0  0  0  0  0  0  0
   -4.5519    0.5381   -0.4541 C   0  0  0  0  0  0  0  0  0  0  0  0
   -5.0606   -0.6694   -1.2166 C   0  0  0  0  0  0  0  0  0  0  0  0
    4.3108   -2.4058   -0.0072 H   0  0  0  0  0  0  0  0  0  0  0  0
    3.7463   -1.7852   -1.5664 H   0  0  0  0  0  0  0  0  0  0  0  0
    5.4774   -2.0142   -1.2850 H   0  0  0  0  0  0  0  0  0  0  0  0
    4.7647    0.3977   -1.1394 H   0  0  0  0  0  0  0  0  0  0  0  0
    5.4904   -0.1940    0.3867 H   0  0  0  0  0  0  0  0  0  0  0  0
    0.9912    2.9538    0.1554 H   0  0  0  0  0  0  0  0  0  0  0  0
    0.6713    2.7515    1.8969 H   0  0  0  0  0  0  0  0  0  0  0  0
    3.4202    2.8710    0.5415 H   0  0  0  0  0  0  0  0  0  0  0  0
    2.7129    4.1216    1.5752 H   0  0  0  0  0  0  0  0  0  0  0  0
    3.1705    2.5512    2.2663 H   0  0  0  0  0  0  0  0  0  0  0  0
    0.1655   -2.3921   -1.9688 H   0  0  0  0  0  0  0  0  0  0  0  0
    0.0308   -0.6027   -1.8310 H   0  0  0  0  0  0  0  0  0  0  0  0
   -0.7188   -1.8779    2.1358 H   0  0  0  0  0  0  0  0  0  0  0  0
   -0.9366   -0.6904    3.4495 H   0  0  0  0  0  0  0  0  0  0  0  0
   -2.7097   -2.4117    3.5631 H   0  0  0  0  0  0  0  0  0  0  0  0
   -3.4328   -0.8561    3.1150 H   0  0  0  0  0  0  0  0  0  0  0  0
   -3.1653   -2.0983    1.8824 H   0  0  0  0  0  0  0  0  0  0  0  0
   -5.3484    1.0010    0.1312 H   0  0  0  0  0  0  0  0  0  0  0  0
   -4.1175    1.2822   -1.1304 H   0  0  0  0  0  0  0  0  0  0  0  0
   -4.2664   -1.1062   -1.8175 H   0  0  0  0  0  0  0  0  0  0  0  0
   -5.4289   -1.4204   -0.5236 H   0  0  0  0  0  0  0  0  0  0  0  0
   -5.8688   -0.3588   -1.8709 H   0  0  0  0  0  0  0  0  0  0  0  0
  1  2  1  0  0  0  0
  2  3  1  0  0  0  0
  3  4  2  0  0  0  0
  4  5  2  0  0  0  0
  4  6  2  0  0  0  0
  6  7  1  0  0  0  0
  7  8  1  0  0  0  0
  4  9  1  0  0  0  0
  9 10  1  0  0  0  0
 10 11  1  0  0  0  0
 11 12  1  0  0  0  0
 12 13  2  0  0  0  0
 12 14  2  0  0  0  0
 14 15  1  0  0  0  0
 15 16  1  0  0  0  0
 12 17  2  0  0  0  0
 17 18  1  0  0  0  0
 18 19  1  0  0  0  0
  1 20  1  0  0  0  0
  1 21  1  0  0  0  0
  1 22  1  0  0  0  0
  2 23  1  0  0  0  0
  2 24  1  0  0  0  0
  7 25  1  0  0  0  0
  7 26  1  0  0  0  0
  8 27  1  0  0  0  0
  8 28  1  0  0  0  0
  8 29  1  0  0  0  0
 10 30  1  0  0  0  0
 10 31  1  0  0  0  0
 15 32  1  0  0  0  0
 15 33  1  0  0  0  0
 16 34  1  0  0  0  0
 16 35  1  0  0  0  0
 16 36  1  0  0  0  0
 18 37  1  0  0  0  0
 18 38  1  0  0  0  0
 19 39  1  0  0  0  0
 19 40  1  0  0  0  0
 19 41  1  0  0  0  0
M  END
