 xtb: 6.7.1 (edcfbbe)
          04092505213D

 41 40  0     0  0            999 V2000
    1.6183   -1.8676    2.4154 C   0  0  0  0  0  0  0  0  0  0  0  0
    2.1154   -0.4370    2.3700 C   0  0  0  0  0  0  0  0  0  0  0  0
    3.0804   -0.2101    1.3299 O   0  0  0  0  0  0  0  0  0  0  0  0
    2.8207   -0.4027   -0.2277 P   0  0  0  0  0  0  0  0  0  0  0  0
    2.8419   -2.2398   -0.9045 S   0  0  0  0  0  0  0  0  0  0  0  0
    4.0228    0.3910   -0.8598 O   0  0  0  0  0  0  0  0  0  0  0  0
    4.1734    1.8281   -0.9564 C   0  0  0  0  0  0  0  0  0  0  0  0
    3.9615    2.5450    0.3592 C   0  0  0  0  0  0  0  0  0  0  0  0
    1.0548    0.7422   -0.6514 S   0  0  0  0  0  0  0  0  0  0  0  0
    0.0140   -0.5703   -1.3320 C   0  0  0  0  0  0  0  0  0  0  0  0
   -1.1815   -1.2137   -0.1395 S   0  0  0  0  0  0  0  0  0  0  0  0
   -2.5026    0.4643   -0.2205 P   0  0  0  0  0  0  0  0  0  0  0  0
   -2.6918    1.3244   -1.9660 S   0  0  0  0  0  0  0  0  0  0  0  0
   -1.9532    1.4688    0.8630 O   0  0  0  0  0  0  0  0  0  0  0  0
   -1.6974    1.1264    2.2473 C   0  0  0  0  0  0  0  0  0  0  0  0
   -2.9125    1.3863    3.1139 C   0  0  0  0  0  0  0  0  0  0  0  0
   -3.8473   -0.0743    0.4347 O   0  0  0  0  0  0  0  0  0  0  0  0
   -4.8797   -0.7136   -0.3370 C   0  0  0  0  0  0  0  0  0  0  0  0
   -4.4397   -2.0524   -0.8930 C   0  0  0  0  0  0  0  0  0  0  0  0
    1.0343   -2.1012    1.5258 H   0  0  0  0  0  0  0  0  0  0  0  0
    2.4581   -2.5565    2.4621 H   0  0  0  0  0  0  0  0  0  0  0  0
    0.9934   -2.0042    3.2922 H   0  0  0  0  0  0  0  0  0  0  0  0
    2.6558   -0.1761    3.2817 H   0  0  0  0  0  0  0  0  0  0  0  0
    1.2829    0.2577    2.2224 H   0  0  0  0  0  0  0  0  0  0  0  0
    5.1961    1.9453   -1.3185 H   0  0  0  0  0  0  0  0  0  0  0  0
    3.4707    2.1882   -1.7124 H   0  0  0  0  0  0  0  0  0  0  0  0
    4.2061    3.5951    0.2304 H   0  0  0  0  0  0  0  0  0  0  0  0
    2.9213    2.4629    0.6697 H   0  0  0  0  0  0  0  0  0  0  0  0
    4.5993    2.1180    1.1285 H   0  0  0  0  0  0  0  0  0  0  0  0
    0.6495   -1.4068   -1.6337 H   0  0  0  0  0  0  0  0  0  0  0  0
   -0.5279   -0.1485   -2.1790 H   0  0  0  0  0  0  0  0  0  0  0  0
   -1.3934    0.0768    2.3011 H   0  0  0  0  0  0  0  0  0  0  0  0
   -0.8657    1.7750    2.5296 H   0  0  0  0  0  0  0  0  0  0  0  0
   -3.2384    2.4164    2.9988 H   0  0  0  0  0  0  0  0  0  0  0  0
   -3.7279    0.7267    2.8310 H   0  0  0  0  0  0  0  0  0  0  0  0
   -2.6502    1.2073    4.1520 H   0  0  0  0  0  0  0  0  0  0  0  0
   -5.7031   -0.8235    0.3701 H   0  0  0  0  0  0  0  0  0  0  0  0
   -5.1725   -0.0382   -1.1467 H   0  0  0  0  0  0  0  0  0  0  0  0
   -5.2923   -2.5499   -1.3441 H   0  0  0  0  0  0  0  0  0  0  0  0
   -3.6752   -1.9087   -1.6550 H   0  0  0  0  0  0  0  0  0  0  0  0
   -4.0338   -2.6777   -0.1016 H   0  0  0  0  0  0  0  0  0  0  0  0
  1  2  1  0  0  0  0
  2  3  1  0  0  0  0
  3  4  2  0  0  0  0
  4  5  2  0  0  0  0
  4  6  2  0  0  0  0
  6  7  1  0  0  0  0
  7  8  1  0  0  0  0
  4  9  1  0  0  0  0
  9 10  1  0  0  0  0
 10 11  1  0  0  0  0
 11 12  1  0  0  0  0
 12 13  2  0  0  0  0
 12 14  2  0  0  0  0
 14 15  1  0  0  0  0
 15 16  1  0  0  0  0
 12 17  2  0  0  0  0
 17 18  1  0  0  0  0
 18 19  1  0  0  0  0
  1 20  1  0  0  0  0
  1 21  1  0  0  0  0
  1 22  1  0  0  0  0
  2 23  1  0  0  0  0
  2 24  1  0  0  0  0
  7 25  1  0  0  0  0
  7 26  1  0  0  0  0
  8 27  1  0  0  0  0
  8 28  1  0  0  0  0
  8 29  1  0  0  0  0
 10 30  1  0  0  0  0
 10 31  1  0  0  0  0
 15 32  1  0  0  0  0
 15 33  1  0  0  0  0
 16 34  1  0  0  0  0
 16 35  1  0  0  0  0
 16 36  1  0  0  0  0
 18 37  1  0  0  0  0
 18 38  1  0  0  0  0
 19 39  1  0  0  0  0
 19 40  1  0  0  0  0
 19 41  1  0  0  0  0
M  END
