 xtb: 6.7.1 (edcfbbe)
          04032520493D

 12 12  0     0  0            999 V2000
   -1.8917   -0.0000   -0.0000 C   0  0  0  0  0  0  0  0  0  0  0  0
   -1.2021   -1.2015    0.0000 C   0  0  0  0  0  0  0  0  0  0  0  0
    0.1829   -1.2117    0.0000 C   0  0  0  0  0  0  0  0  0  0  0  0
    0.8451    0.0000   -0.0000 C   0  0  0  0  0  0  0  0  0  0  0  0
    0.1829    1.2117    0.0000 C   0  0  0  0  0  0  0  0  0  0  0  0
   -1.2021    1.2015    0.0000 C   0  0  0  0  0  0  0  0  0  0  0  0
    2.2135   -0.0000   -0.0000 F   0  0  0  0  0  0  0  0  0  0  0  0
   -2.9701   -0.0000    0.0001 H   0  0  0  0  0  0  0  0  0  0  0  0
   -1.7396   -2.1364    0.0001 H   0  0  0  0  0  0  0  0  0  0  0  0
    0.7450   -2.1314   -0.0001 H   0  0  0  0  0  0  0  0  0  0  0  0
    0.7450    2.1314   -0.0001 H   0  0  0  0  0  0  0  0  0  0  0  0
   -1.7396    2.1364   -0.0001 H   0  0  0  0  0  0  0  0  0  0  0  0
  1  2  4  0  0  0  0
  2  3  4  0  0  0  0
  3  4  4  0  0  0  0
  4  5  4  0  0  0  0
  1  6  4  0  0  0  0
  5  6  4  0  0  0  0
  4  7  1  0  0  0  0
  1  8  1  0  0  0  0
  2  9  1  0  0  0  0
  3 10  1  0  0  0  0
  5 11  1  0  0  0  0
  6 12  1  0  0  0  0
M  END
