 xtb: 6.7.1 (edcfbbe)
          04092505203D

 41 40  0     0  0            999 V2000
    4.2986   -2.2143    1.0019 C   0  0  0  0  0  0  0  0  0  0  0  0
    4.6389   -0.7847    0.6332 C   0  0  0  0  0  0  0  0  0  0  0  0
    3.5067    0.0929    0.7654 O   0  0  0  0  0  0  0  0  0  0  0  0
    2.2397   -0.0004   -0.1877 P   0  0  0  0  0  0  0  0  0  0  0  0
    2.6352   -0.3729   -2.0752 S   0  0  0  0  0  0  0  0  0  0  0  0
    1.5164    1.3805    0.1257 O   0  0  0  0  0  0  0  0  0  0  0  0
    1.7169    2.5497   -0.6916 C   0  0  0  0  0  0  0  0  0  0  0  0
    3.1135    3.1116   -0.5308 C   0  0  0  0  0  0  0  0  0  0  0  0
    0.9319   -1.3141    0.8140 S   0  0  0  0  0  0  0  0  0  0  0  0
   -0.2073   -1.5910   -0.5736 C   0  0  0  0  0  0  0  0  0  0  0  0
   -0.9419   -0.0681   -1.2411 S   0  0  0  0  0  0  0  0  0  0  0  0
   -2.5365    0.1319    0.1597 P   0  0  0  0  0  0  0  0  0  0  0  0
   -3.6077    1.7568   -0.0441 S   0  0  0  0  0  0  0  0  0  0  0  0
   -1.8676   -0.0940    1.5772 O   0  0  0  0  0  0  0  0  0  0  0  0
   -1.2315    0.9828    2.2930 C   0  0  0  0  0  0  0  0  0  0  0  0
   -0.8979    0.4684    3.6780 C   0  0  0  0  0  0  0  0  0  0  0  0
   -3.3057   -1.2534    0.1110 O   0  0  0  0  0  0  0  0  0  0  0  0
   -4.4608   -1.4368   -0.7278 C   0  0  0  0  0  0  0  0  0  0  0  0
   -4.0915   -1.4988   -2.1967 C   0  0  0  0  0  0  0  0  0  0  0  0
    5.2062   -2.8095    1.0075 H   0  0  0  0  0  0  0  0  0  0  0  0
    3.8354   -2.2512    1.9847 H   0  0  0  0  0  0  0  0  0  0  0  0
    3.6070   -2.6325    0.2719 H   0  0  0  0  0  0  0  0  0  0  0  0
    4.9998   -0.7299   -0.3989 H   0  0  0  0  0  0  0  0  0  0  0  0
    5.3804   -0.3585    1.3102 H   0  0  0  0  0  0  0  0  0  0  0  0
    1.5207    2.2794   -1.7347 H   0  0  0  0  0  0  0  0  0  0  0  0
    0.9529    3.2490   -0.3474 H   0  0  0  0  0  0  0  0  0  0  0  0
    3.3270    3.2907    0.5198 H   0  0  0  0  0  0  0  0  0  0  0  0
    3.8432    2.4048   -0.9242 H   0  0  0  0  0  0  0  0  0  0  0  0
    3.1919    4.0436   -1.0817 H   0  0  0  0  0  0  0  0  0  0  0  0
   -0.9927   -2.2468   -0.2048 H   0  0  0  0  0  0  0  0  0  0  0  0
    0.3399   -2.0418   -1.4000 H   0  0  0  0  0  0  0  0  0  0  0  0
   -0.3261    1.2837    1.7562 H   0  0  0  0  0  0  0  0  0  0  0  0
   -1.9211    1.8327    2.3270 H   0  0  0  0  0  0  0  0  0  0  0  0
   -1.8044    0.1476    4.1826 H   0  0  0  0  0  0  0  0  0  0  0  0
   -0.2180   -0.3758    3.6007 H   0  0  0  0  0  0  0  0  0  0  0  0
   -0.4271    1.2617    4.2490 H   0  0  0  0  0  0  0  0  0  0  0  0
   -4.8921   -2.3761   -0.3789 H   0  0  0  0  0  0  0  0  0  0  0  0
   -5.1597   -0.6151   -0.5428 H   0  0  0  0  0  0  0  0  0  0  0  0
   -3.3563   -2.2793   -2.3748 H   0  0  0  0  0  0  0  0  0  0  0  0
   -4.9821   -1.7057   -2.7814 H   0  0  0  0  0  0  0  0  0  0  0  0
   -3.6753   -0.5433   -2.5154 H   0  0  0  0  0  0  0  0  0  0  0  0
  1  2  1  0  0  0  0
  2  3  1  0  0  0  0
  3  4  2  0  0  0  0
  4  5  2  0  0  0  0
  4  6  1  0  0  0  0
  6  7  1  0  0  0  0
  7  8  1  0  0  0  0
  4  9  1  0  0  0  0
  9 10  1  0  0  0  0
 10 11  1  0  0  0  0
 11 12  1  0  0  0  0
 12 13  2  0  0  0  0
 12 14  2  0  0  0  0
 14 15  1  0  0  0  0
 15 16  1  0  0  0  0
 12 17  2  0  0  0  0
 17 18  1  0  0  0  0
 18 19  1  0  0  0  0
  1 20  1  0  0  0  0
  1 21  1  0  0  0  0
  1 22  1  0  0  0  0
  2 23  1  0  0  0  0
  2 24  1  0  0  0  0
  7 25  1  0  0  0  0
  7 26  1  0  0  0  0
  8 27  1  0  0  0  0
  8 28  1  0  0  0  0
  8 29  1  0  0  0  0
 10 30  1  0  0  0  0
 10 31  1  0  0  0  0
 15 32  1  0  0  0  0
 15 33  1  0  0  0  0
 16 34  1  0  0  0  0
 16 35  1  0  0  0  0
 16 36  1  0  0  0  0
 18 37  1  0  0  0  0
 18 38  1  0  0  0  0
 19 39  1  0  0  0  0
 19 40  1  0  0  0  0
 19 41  1  0  0  0  0
M  END
