 xtb: 6.7.1 (edcfbbe)
          04092507313D

 38 37  0     0  0            999 V2000
    4.0421   -3.7913   -2.3047 C   0  0  0  0  0  0  0  0  0  0  0  0
    3.4080   -3.9254   -0.9294 C   0  0  0  0  0  0  0  0  0  0  0  0
    3.3142   -2.6438   -0.2771 O   0  0  0  0  0  0  0  0  0  0  0  0
    2.2539   -1.8955   -0.5109 C   0  0  0  0  0  0  0  0  0  0  0  0
    1.3240   -2.2176   -1.2169 O   0  0  0  0  0  0  0  0  0  0  0  0
    2.3437   -0.5779    0.2328 C   0  0  0  0  0  0  0  0  0  0  0  0
    1.0436    0.1973    0.1095 C   0  0  0  0  0  0  0  0  0  0  0  0
    0.6914    0.1485   -0.9326 H   0  0  0  0  0  0  0  0  0  0  0  0
    1.1893    1.6704    0.4411 C   0  0  0  0  0  0  0  0  0  0  0  0
    2.2063    2.2924    0.2415 O   0  0  0  0  0  0  0  0  0  0  0  0
    0.0743    2.1689    0.9326 O   0  0  0  0  0  0  0  0  0  0  0  0
    0.0037    3.5825    1.2115 C   0  0  0  0  0  0  0  0  0  0  0  0
   -0.6856    4.3120    0.0718 C   0  0  0  0  0  0  0  0  0  0  0  0
   -0.2662   -0.5697    1.1185 S   0  0  0  0  0  0  0  0  0  0  0  0
   -1.9292    0.2818    0.1028 P   0  0  0  0  0  0  0  0  0  0  0  0
   -1.6209    1.0050   -1.6894 S   0  0  0  0  0  0  0  0  0  0  0  0
   -2.9936   -0.9181    0.1512 O   0  0  0  0  0  0  0  0  0  0  0  0
   -2.8040   -2.0930   -0.6418 C   0  0  0  0  0  0  0  0  0  0  0  0
   -2.6266    1.3176    1.0675 O   0  0  0  0  0  0  0  0  0  0  0  0
   -2.9965    0.9782    2.4185 C   0  0  0  0  0  0  0  0  0  0  0  0
    4.1623   -4.7768   -2.7422 H   0  0  0  0  0  0  0  0  0  0  0  0
    3.4065   -3.1928   -2.9538 H   0  0  0  0  0  0  0  0  0  0  0  0
    5.0145   -3.3135   -2.2239 H   0  0  0  0  0  0  0  0  0  0  0  0
    4.0278   -4.5245   -0.2623 H   0  0  0  0  0  0  0  0  0  0  0  0
    2.4041   -4.3520   -1.0057 H   0  0  0  0  0  0  0  0  0  0  0  0
    3.1532    0.0175   -0.1975 H   0  0  0  0  0  0  0  0  0  0  0  0
    2.5913   -0.7777    1.2760 H   0  0  0  0  0  0  0  0  0  0  0  0
   -0.5720    3.6566    2.1346 H   0  0  0  0  0  0  0  0  0  0  0  0
    1.0220    3.9515    1.3604 H   0  0  0  0  0  0  0  0  0  0  0  0
   -0.1006    4.2255   -0.8414 H   0  0  0  0  0  0  0  0  0  0  0  0
   -1.6673    3.8794   -0.1073 H   0  0  0  0  0  0  0  0  0  0  0  0
   -0.7941    5.3604    0.3281 H   0  0  0  0  0  0  0  0  0  0  0  0
   -3.6859   -2.7055   -0.4747 H   0  0  0  0  0  0  0  0  0  0  0  0
   -1.9026   -2.6202   -0.3268 H   0  0  0  0  0  0  0  0  0  0  0  0
   -2.7168   -1.8245   -1.6957 H   0  0  0  0  0  0  0  0  0  0  0  0
   -3.7868    0.2302    2.4093 H   0  0  0  0  0  0  0  0  0  0  0  0
   -3.3492    1.9073    2.8586 H   0  0  0  0  0  0  0  0  0  0  0  0
   -2.1281    0.5976    2.9565 H   0  0  0  0  0  0  0  0  0  0  0  0
  1  2  1  0  0  0  0
  2  3  1  0  0  0  0
  3  4  1  0  0  0  0
  4  5  2  0  0  0  0
  4  6  1  0  0  0  0
  6  7  1  0  0  0  0
  7  8  1  0  0  0  0
  7  9  1  0  0  0  0
  9 10  2  0  0  0  0
  9 11  1  0  0  0  0
 11 12  1  0  0  0  0
 12 13  1  0  0  0  0
  7 14  1  0  0  0  0
 14 15  1  0  0  0  0
 15 16  2  0  0  0  0
 15 17  1  0  0  0  0
 17 18  1  0  0  0  0
 15 19  2  0  0  0  0
 19 20  1  0  0  0  0
  1 21  1  0  0  0  0
  1 22  1  0  0  0  0
  1 23  1  0  0  0  0
  2 24  1  0  0  0  0
  2 25  1  0  0  0  0
  6 26  1  0  0  0  0
  6 27  1  0  0  0  0
 12 28  1  0  0  0  0
 12 29  1  0  0  0  0
 13 30  1  0  0  0  0
 13 31  1  0  0  0  0
 13 32  1  0  0  0  0
 18 33  1  0  0  0  0
 18 34  1  0  0  0  0
 18 35  1  0  0  0  0
 20 36  1  0  0  0  0
 20 37  1  0  0  0  0
 20 38  1  0  0  0  0
M  END
