 xtb: 6.7.1 (edcfbbe)
          04092505213D

 41 40  0     0  0            999 V2000
    3.3915   -0.6748   -2.5653 C   0  0  0  0  0  0  0  0  0  0  0  0
    1.9580   -0.2438   -2.3439 C   0  0  0  0  0  0  0  0  0  0  0  0
    1.5168   -0.5293   -1.0033 O   0  0  0  0  0  0  0  0  0  0  0  0
    2.1091    0.2340    0.2538 P   0  0  0  0  0  0  0  0  0  0  0  0
    2.7771    2.0553    0.0080 S   0  0  0  0  0  0  0  0  0  0  0  0
    3.2131   -0.8217    0.7207 O   0  0  0  0  0  0  0  0  0  0  0  0
    4.2655   -0.4742    1.6337 C   0  0  0  0  0  0  0  0  0  0  0  0
    3.7484   -0.2537    3.0414 C   0  0  0  0  0  0  0  0  0  0  0  0
    0.5282   -0.0280    1.6338 S   0  0  0  0  0  0  0  0  0  0  0  0
    0.0643   -1.7347    1.2533 C   0  0  0  0  0  0  0  0  0  0  0  0
   -0.9680   -1.9415   -0.2464 S   0  0  0  0  0  0  0  0  0  0  0  0
   -1.8606   -0.0424   -0.4508 P   0  0  0  0  0  0  0  0  0  0  0  0
   -0.8980    1.5281   -1.1227 S   0  0  0  0  0  0  0  0  0  0  0  0
   -2.5151    0.0944    1.0014 O   0  0  0  0  0  0  0  0  0  0  0  0
   -2.7888    1.3703    1.6078 C   0  0  0  0  0  0  0  0  0  0  0  0
   -4.0175    2.0118    0.9966 C   0  0  0  0  0  0  0  0  0  0  0  0
   -3.0317   -0.3671   -1.4681 O   0  0  0  0  0  0  0  0  0  0  0  0
   -4.0489   -1.3689   -1.2048 C   0  0  0  0  0  0  0  0  0  0  0  0
   -5.3547   -0.8828   -1.7999 C   0  0  0  0  0  0  0  0  0  0  0  0
    4.0555   -0.0740   -1.9446 H   0  0  0  0  0  0  0  0  0  0  0  0
    3.5121   -1.7229   -2.3046 H   0  0  0  0  0  0  0  0  0  0  0  0
    3.6524   -0.5261   -3.6083 H   0  0  0  0  0  0  0  0  0  0  0  0
    1.2595   -0.8017   -2.9705 H   0  0  0  0  0  0  0  0  0  0  0  0
    1.8333    0.8289   -2.5269 H   0  0  0  0  0  0  0  0  0  0  0  0
    4.9507   -1.3214    1.5818 H   0  0  0  0  0  0  0  0  0  0  0  0
    4.7586    0.4300    1.2626 H   0  0  0  0  0  0  0  0  0  0  0  0
    3.1992   -1.1249    3.3883 H   0  0  0  0  0  0  0  0  0  0  0  0
    4.5865   -0.0680    3.7054 H   0  0  0  0  0  0  0  0  0  0  0  0
    3.0853    0.6111    3.0599 H   0  0  0  0  0  0  0  0  0  0  0  0
   -0.5081   -2.0829    2.1097 H   0  0  0  0  0  0  0  0  0  0  0  0
    0.9592   -2.3338    1.0982 H   0  0  0  0  0  0  0  0  0  0  0  0
   -2.9272    1.1392    2.6646 H   0  0  0  0  0  0  0  0  0  0  0  0
   -1.9114    2.0135    1.4833 H   0  0  0  0  0  0  0  0  0  0  0  0
   -3.8436    2.1960   -0.0637 H   0  0  0  0  0  0  0  0  0  0  0  0
   -4.8802    1.3603    1.1093 H   0  0  0  0  0  0  0  0  0  0  0  0
   -4.2139    2.9583    1.4902 H   0  0  0  0  0  0  0  0  0  0  0  0
   -3.7164   -2.2971   -1.6741 H   0  0  0  0  0  0  0  0  0  0  0  0
   -4.1303   -1.5164   -0.1253 H   0  0  0  0  0  0  0  0  0  0  0  0
   -6.1173   -1.6402   -1.6499 H   0  0  0  0  0  0  0  0  0  0  0  0
   -5.6672    0.0425   -1.3233 H   0  0  0  0  0  0  0  0  0  0  0  0
   -5.2318   -0.7005   -2.8636 H   0  0  0  0  0  0  0  0  0  0  0  0
  1  2  1  0  0  0  0
  2  3  1  0  0  0  0
  3  4  2  0  0  0  0
  4  5  2  0  0  0  0
  4  6  2  0  0  0  0
  6  7  1  0  0  0  0
  7  8  1  0  0  0  0
  4  9  1  0  0  0  0
  9 10  1  0  0  0  0
 10 11  1  0  0  0  0
 11 12  1  0  0  0  0
 12 13  2  0  0  0  0
 12 14  1  0  0  0  0
 14 15  1  0  0  0  0
 15 16  1  0  0  0  0
 12 17  2  0  0  0  0
 17 18  1  0  0  0  0
 18 19  1  0  0  0  0
  1 20  1  0  0  0  0
  1 21  1  0  0  0  0
  1 22  1  0  0  0  0
  2 23  1  0  0  0  0
  2 24  1  0  0  0  0
  7 25  1  0  0  0  0
  7 26  1  0  0  0  0
  8 27  1  0  0  0  0
  8 28  1  0  0  0  0
  8 29  1  0  0  0  0
 10 30  1  0  0  0  0
 10 31  1  0  0  0  0
 15 32  1  0  0  0  0
 15 33  1  0  0  0  0
 16 34  1  0  0  0  0
 16 35  1  0  0  0  0
 16 36  1  0  0  0  0
 18 37  1  0  0  0  0
 18 38  1  0  0  0  0
 19 39  1  0  0  0  0
 19 40  1  0  0  0  0
 19 41  1  0  0  0  0
M  END
