 xtb: 6.7.1 (edcfbbe)
          04092505203D

 41 40  0     0  0            999 V2000
    3.9920   -0.6574   -2.6915 C   0  0  0  0  0  0  0  0  0  0  0  0
    4.2891    0.3916   -1.6396 C   0  0  0  0  0  0  0  0  0  0  0  0
    3.7709    0.0229   -0.3503 O   0  0  0  0  0  0  0  0  0  0  0  0
    2.2139   -0.0726   -0.0527 P   0  0  0  0  0  0  0  0  0  0  0  0
    1.1644    1.3577   -0.8999 S   0  0  0  0  0  0  0  0  0  0  0  0
    2.1643   -0.1357    1.5273 O   0  0  0  0  0  0  0  0  0  0  0  0
    2.0974    1.0405    2.3581 C   0  0  0  0  0  0  0  0  0  0  0  0
    3.3527    1.8794    2.2556 C   0  0  0  0  0  0  0  0  0  0  0  0
    1.7918   -2.0980   -0.4646 S   0  0  0  0  0  0  0  0  0  0  0  0
    0.0440   -2.1658   -0.0021 C   0  0  0  0  0  0  0  0  0  0  0  0
   -1.0524   -1.3939   -1.2467 S   0  0  0  0  0  0  0  0  0  0  0  0
   -2.2189   -0.2216    0.0596 P   0  0  0  0  0  0  0  0  0  0  0  0
   -1.3539    0.4517    1.6930 S   0  0  0  0  0  0  0  0  0  0  0  0
   -3.3866   -1.2517    0.3445 O   0  0  0  0  0  0  0  0  0  0  0  0
   -4.2775   -1.1223    1.4714 C   0  0  0  0  0  0  0  0  0  0  0  0
   -5.1799    0.0859    1.3393 C   0  0  0  0  0  0  0  0  0  0  0  0
   -2.9417    0.8158   -0.8942 O   0  0  0  0  0  0  0  0  0  0  0  0
   -2.3801    2.0460   -1.3919 C   0  0  0  0  0  0  0  0  0  0  0  0
   -2.6753    3.1949   -0.4473 C   0  0  0  0  0  0  0  0  0  0  0  0
    4.3326   -1.6342   -2.3574 H   0  0  0  0  0  0  0  0  0  0  0  0
    2.9189   -0.7063   -2.8750 H   0  0  0  0  0  0  0  0  0  0  0  0
    4.4954   -0.3939   -3.6162 H   0  0  0  0  0  0  0  0  0  0  0  0
    3.8543    1.3552   -1.9251 H   0  0  0  0  0  0  0  0  0  0  0  0
    5.3607    0.5022   -1.4691 H   0  0  0  0  0  0  0  0  0  0  0  0
    1.2131    1.6186    2.0712 H   0  0  0  0  0  0  0  0  0  0  0  0
    1.9533    0.6386    3.3619 H   0  0  0  0  0  0  0  0  0  0  0  0
    3.4347    2.3039    1.2557 H   0  0  0  0  0  0  0  0  0  0  0  0
    3.3029    2.6872    2.9789 H   0  0  0  0  0  0  0  0  0  0  0  0
    4.2291    1.2672    2.4520 H   0  0  0  0  0  0  0  0  0  0  0  0
   -0.0989   -1.6562    0.9541 H   0  0  0  0  0  0  0  0  0  0  0  0
   -0.2043   -3.2213    0.0674 H   0  0  0  0  0  0  0  0  0  0  0  0
   -4.8418   -2.0555    1.4644 H   0  0  0  0  0  0  0  0  0  0  0  0
   -3.6746   -1.0559    2.3830 H   0  0  0  0  0  0  0  0  0  0  0  0
   -5.9012    0.0888    2.1505 H   0  0  0  0  0  0  0  0  0  0  0  0
   -4.5845    0.9967    1.3906 H   0  0  0  0  0  0  0  0  0  0  0  0
   -5.7025    0.0611    0.3867 H   0  0  0  0  0  0  0  0  0  0  0  0
   -1.3035    1.9307   -1.5395 H   0  0  0  0  0  0  0  0  0  0  0  0
   -2.8654    2.1897   -2.3588 H   0  0  0  0  0  0  0  0  0  0  0  0
   -2.1952    3.0236    0.5140 H   0  0  0  0  0  0  0  0  0  0  0  0
   -2.2834    4.1126   -0.8735 H   0  0  0  0  0  0  0  0  0  0  0  0
   -3.7470    3.2939   -0.2968 H   0  0  0  0  0  0  0  0  0  0  0  0
  1  2  1  0  0  0  0
  2  3  1  0  0  0  0
  3  4  2  0  0  0  0
  4  5  2  0  0  0  0
  4  6  2  0  0  0  0
  6  7  1  0  0  0  0
  7  8  1  0  0  0  0
  4  9  1  0  0  0  0
  9 10  1  0  0  0  0
 10 11  1  0  0  0  0
 11 12  1  0  0  0  0
 12 13  2  0  0  0  0
 12 14  2  0  0  0  0
 14 15  1  0  0  0  0
 15 16  1  0  0  0  0
 12 17  2  0  0  0  0
 17 18  1  0  0  0  0
 18 19  1  0  0  0  0
  1 20  1  0  0  0  0
  1 21  1  0  0  0  0
  1 22  1  0  0  0  0
  2 23  1  0  0  0  0
  2 24  1  0  0  0  0
  7 25  1  0  0  0  0
  7 26  1  0  0  0  0
  8 27  1  0  0  0  0
  8 28  1  0  0  0  0
  8 29  1  0  0  0  0
 10 30  1  0  0  0  0
 10 31  1  0  0  0  0
 15 32  1  0  0  0  0
 15 33  1  0  0  0  0
 16 34  1  0  0  0  0
 16 35  1  0  0  0  0
 16 36  1  0  0  0  0
 18 37  1  0  0  0  0
 18 38  1  0  0  0  0
 19 39  1  0  0  0  0
 19 40  1  0  0  0  0
 19 41  1  0  0  0  0
M  END
