 xtb: 6.7.1 (edcfbbe)
          04092505203D

 41 40  0     0  0            999 V2000
    3.7744   -1.4576   -2.5540 C   0  0  0  0  0  0  0  0  0  0  0  0
    4.0661   -1.7411   -1.0945 C   0  0  0  0  0  0  0  0  0  0  0  0
    2.8763   -1.7060   -0.2874 O   0  0  0  0  0  0  0  0  0  0  0  0
    2.0770   -0.3643    0.0020 P   0  0  0  0  0  0  0  0  0  0  0  0
    3.1817    1.2335    0.2894 S   0  0  0  0  0  0  0  0  0  0  0  0
    1.1498   -0.8099    1.2057 O   0  0  0  0  0  0  0  0  0  0  0  0
    1.4719   -0.5236    2.5794 C   0  0  0  0  0  0  0  0  0  0  0  0
    2.6538   -1.3415    3.0553 C   0  0  0  0  0  0  0  0  0  0  0  0
    0.6462   -0.2700   -1.5531 S   0  0  0  0  0  0  0  0  0  0  0  0
    0.1313    1.4394   -1.2433 C   0  0  0  0  0  0  0  0  0  0  0  0
   -0.6194    1.6634    0.3888 S   0  0  0  0  0  0  0  0  0  0  0  0
   -2.3092    0.4209    0.0458 P   0  0  0  0  0  0  0  0  0  0  0  0
   -3.0515    0.4834   -1.7720 S   0  0  0  0  0  0  0  0  0  0  0  0
   -3.2623    0.7969    1.2549 O   0  0  0  0  0  0  0  0  0  0  0  0
   -3.6116    2.1339    1.6592 C   0  0  0  0  0  0  0  0  0  0  0  0
   -4.1986    2.9549    0.5294 C   0  0  0  0  0  0  0  0  0  0  0  0
   -1.9102   -1.0304    0.5380 O   0  0  0  0  0  0  0  0  0  0  0  0
   -2.0288   -2.2244   -0.2661 C   0  0  0  0  0  0  0  0  0  0  0  0
   -0.9466   -3.2019    0.1430 C   0  0  0  0  0  0  0  0  0  0  0  0
    4.6765   -1.6116   -3.1373 H   0  0  0  0  0  0  0  0  0  0  0  0
    2.9907   -2.1170   -2.9189 H   0  0  0  0  0  0  0  0  0  0  0  0
    3.4475   -0.4257   -2.6758 H   0  0  0  0  0  0  0  0  0  0  0  0
    4.7758   -1.0092   -0.6958 H   0  0  0  0  0  0  0  0  0  0  0  0
    4.4513   -2.7512   -0.9487 H   0  0  0  0  0  0  0  0  0  0  0  0
    1.6762    0.5483    2.6728 H   0  0  0  0  0  0  0  0  0  0  0  0
    0.5570   -0.7715    3.1197 H   0  0  0  0  0  0  0  0  0  0  0  0
    3.5488   -1.0468    2.5083 H   0  0  0  0  0  0  0  0  0  0  0  0
    2.8130   -1.1636    4.1141 H   0  0  0  0  0  0  0  0  0  0  0  0
    2.4717   -2.3997    2.8874 H   0  0  0  0  0  0  0  0  0  0  0  0
   -0.5949    1.6880   -2.0172 H   0  0  0  0  0  0  0  0  0  0  0  0
    0.9983    2.0983   -1.2793 H   0  0  0  0  0  0  0  0  0  0  0  0
   -4.3389    1.9765    2.4576 H   0  0  0  0  0  0  0  0  0  0  0  0
   -2.7164    2.6150    2.0637 H   0  0  0  0  0  0  0  0  0  0  0  0
   -5.0419    2.4343    0.0817 H   0  0  0  0  0  0  0  0  0  0  0  0
   -4.5310    3.9131    0.9155 H   0  0  0  0  0  0  0  0  0  0  0  0
   -3.4490    3.1242   -0.2424 H   0  0  0  0  0  0  0  0  0  0  0  0
   -3.0229   -2.6389   -0.0816 H   0  0  0  0  0  0  0  0  0  0  0  0
   -1.9479   -1.9552   -1.3246 H   0  0  0  0  0  0  0  0  0  0  0  0
   -1.0287   -3.4234    1.2031 H   0  0  0  0  0  0  0  0  0  0  0  0
   -1.0660   -4.1164   -0.4287 H   0  0  0  0  0  0  0  0  0  0  0  0
    0.0387   -2.7855   -0.0523 H   0  0  0  0  0  0  0  0  0  0  0  0
  1  2  1  0  0  0  0
  2  3  1  0  0  0  0
  3  4  2  0  0  0  0
  4  5  2  0  0  0  0
  4  6  2  0  0  0  0
  6  7  1  0  0  0  0
  7  8  1  0  0  0  0
  4  9  1  0  0  0  0
  9 10  1  0  0  0  0
 10 11  1  0  0  0  0
 11 12  1  0  0  0  0
 12 13  2  0  0  0  0
 12 14  2  0  0  0  0
 14 15  1  0  0  0  0
 15 16  1  0  0  0  0
 12 17  2  0  0  0  0
 17 18  1  0  0  0  0
 18 19  1  0  0  0  0
  1 20  1  0  0  0  0
  1 21  1  0  0  0  0
  1 22  1  0  0  0  0
  2 23  1  0  0  0  0
  2 24  1  0  0  0  0
  7 25  1  0  0  0  0
  7 26  1  0  0  0  0
  8 27  1  0  0  0  0
  8 28  1  0  0  0  0
  8 29  1  0  0  0  0
 10 30  1  0  0  0  0
 10 31  1  0  0  0  0
 15 32  1  0  0  0  0
 15 33  1  0  0  0  0
 16 34  1  0  0  0  0
 16 35  1  0  0  0  0
 16 36  1  0  0  0  0
 18 37  1  0  0  0  0
 18 38  1  0  0  0  0
 19 39  1  0  0  0  0
 19 40  1  0  0  0  0
 19 41  1  0  0  0  0
M  END
