 xtb: 6.7.1 (edcfbbe)
          04032519413D

 13 13  0     0  0            999 V2000
   -1.9359   -1.2040   -0.0000 C   0  0  0  0  0  0  0  0  0  0  0  0
   -0.5560   -1.2072    0.0003 C   0  0  0  0  0  0  0  0  0  0  0  0
    0.1213    0.0000    0.0006 C   0  0  0  0  0  0  0  0  0  0  0  0
   -0.5554    1.2053    0.0003 C   0  0  0  0  0  0  0  0  0  0  0  0
   -1.9381    1.2037   -0.0000 C   0  0  0  0  0  0  0  0  0  0  0  0
   -2.6394    0.0006   -0.0001 C   0  0  0  0  0  0  0  0  0  0  0  0
   -3.9889   -0.0558   -0.0003 O   0  0  0  0  0  0  0  0  0  0  0  0
    2.0447    0.0007   -0.0001 Br  0  0  0  0  0  0  0  0  0  0  0  0
   -2.4898   -2.1285   -0.0002 H   0  0  0  0  0  0  0  0  0  0  0  0
   -0.0123   -2.1384    0.0004 H   0  0  0  0  0  0  0  0  0  0  0  0
   -0.0112    2.1364    0.0002 H   0  0  0  0  0  0  0  0  0  0  0  0
   -2.4676    2.1440   -0.0002 H   0  0  0  0  0  0  0  0  0  0  0  0
   -4.3796    0.8321   -0.0002 H   0  0  0  0  0  0  0  0  0  0  0  0
  1  2  4  0  0  0  0
  2  3  4  0  0  0  0
  3  4  4  0  0  0  0
  4  5  4  0  0  0  0
  1  6  4  0  0  0  0
  5  6  4  0  0  0  0
  6  7  1  0  0  0  0
  3  8  1  0  0  0  0
  1  9  1  0  0  0  0
  2 10  1  0  0  0  0
  4 11  1  0  0  0  0
  5 12  1  0  0  0  0
  7 13  1  0  0  0  0
M  END
