 xtb: 6.7.1 (edcfbbe)
          04092505203D

 41 40  0     0  0            999 V2000
    4.1505   -0.8578   -2.3087 C   0  0  0  0  0  0  0  0  0  0  0  0
    4.4382    0.2378   -1.3031 C   0  0  0  0  0  0  0  0  0  0  0  0
    3.5459    0.2067   -0.1738 O   0  0  0  0  0  0  0  0  0  0  0  0
    1.9821    0.4883   -0.2996 P   0  0  0  0  0  0  0  0  0  0  0  0
    1.5124    1.8880   -1.5780 S   0  0  0  0  0  0  0  0  0  0  0  0
    1.6245    0.8683    1.1862 O   0  0  0  0  0  0  0  0  0  0  0  0
    2.1630    0.1761    2.3420 C   0  0  0  0  0  0  0  0  0  0  0  0
    1.6629    0.8990    3.5736 C   0  0  0  0  0  0  0  0  0  0  0  0
    1.1834   -1.4546   -0.6895 S   0  0  0  0  0  0  0  0  0  0  0  0
   -0.0589   -1.0367   -1.9444 C   0  0  0  0  0  0  0  0  0  0  0  0
   -1.7813   -1.3133   -1.4418 S   0  0  0  0  0  0  0  0  0  0  0  0
   -1.8259   -0.2960    0.4372 P   0  0  0  0  0  0  0  0  0  0  0  0
   -1.0000   -1.1512    1.9886 S   0  0  0  0  0  0  0  0  0  0  0  0
   -3.3730    0.0311    0.5860 O   0  0  0  0  0  0  0  0  0  0  0  0
   -4.4404   -0.9151    0.3829 C   0  0  0  0  0  0  0  0  0  0  0  0
   -4.2741   -2.1795    1.1986 C   0  0  0  0  0  0  0  0  0  0  0  0
   -1.1933    1.1289    0.1777 O   0  0  0  0  0  0  0  0  0  0  0  0
   -1.8420    2.1394   -0.6380 C   0  0  0  0  0  0  0  0  0  0  0  0
   -2.5739    3.1302    0.2416 C   0  0  0  0  0  0  0  0  0  0  0  0
    3.1987   -0.6702   -2.8032 H   0  0  0  0  0  0  0  0  0  0  0  0
    4.9376   -0.8682   -3.0558 H   0  0  0  0  0  0  0  0  0  0  0  0
    4.1078   -1.8253   -1.8149 H   0  0  0  0  0  0  0  0  0  0  0  0
    4.3591    1.2221   -1.7746 H   0  0  0  0  0  0  0  0  0  0  0  0
    5.4247    0.1208   -0.8523 H   0  0  0  0  0  0  0  0  0  0  0  0
    1.8071   -0.8576    2.3200 H   0  0  0  0  0  0  0  0  0  0  0  0
    3.2521    0.1931    2.2746 H   0  0  0  0  0  0  0  0  0  0  0  0
    2.0803    0.4249    4.4557 H   0  0  0  0  0  0  0  0  0  0  0  0
    1.9616    1.9430    3.5427 H   0  0  0  0  0  0  0  0  0  0  0  0
    0.5784    0.8405    3.6172 H   0  0  0  0  0  0  0  0  0  0  0  0
    0.0921   -1.6996   -2.7934 H   0  0  0  0  0  0  0  0  0  0  0  0
    0.0799    0.0096   -2.2326 H   0  0  0  0  0  0  0  0  0  0  0  0
   -5.3321   -0.3617    0.6826 H   0  0  0  0  0  0  0  0  0  0  0  0
   -4.4884   -1.1495   -0.6843 H   0  0  0  0  0  0  0  0  0  0  0  0
   -4.1623   -1.9403    2.2536 H   0  0  0  0  0  0  0  0  0  0  0  0
   -5.1453   -2.8121    1.0622 H   0  0  0  0  0  0  0  0  0  0  0  0
   -3.3872   -2.7222    0.8734 H   0  0  0  0  0  0  0  0  0  0  0  0
   -1.0286    2.6193   -1.1868 H   0  0  0  0  0  0  0  0  0  0  0  0
   -2.5224    1.6500   -1.3393 H   0  0  0  0  0  0  0  0  0  0  0  0
   -3.0031    3.9072   -0.3831 H   0  0  0  0  0  0  0  0  0  0  0  0
   -3.3649    2.6305    0.7952 H   0  0  0  0  0  0  0  0  0  0  0  0
   -1.8806    3.5790    0.9479 H   0  0  0  0  0  0  0  0  0  0  0  0
  1  2  1  0  0  0  0
  2  3  1  0  0  0  0
  3  4  2  0  0  0  0
  4  5  2  0  0  0  0
  4  6  2  0  0  0  0
  6  7  1  0  0  0  0
  7  8  1  0  0  0  0
  4  9  1  0  0  0  0
  9 10  1  0  0  0  0
 10 11  1  0  0  0  0
 11 12  1  0  0  0  0
 12 13  2  0  0  0  0
 12 14  2  0  0  0  0
 14 15  1  0  0  0  0
 15 16  1  0  0  0  0
 12 17  2  0  0  0  0
 17 18  1  0  0  0  0
 18 19  1  0  0  0  0
  1 20  1  0  0  0  0
  1 21  1  0  0  0  0
  1 22  1  0  0  0  0
  2 23  1  0  0  0  0
  2 24  1  0  0  0  0
  7 25  1  0  0  0  0
  7 26  1  0  0  0  0
  8 27  1  0  0  0  0
  8 28  1  0  0  0  0
  8 29  1  0  0  0  0
 10 30  1  0  0  0  0
 10 31  1  0  0  0  0
 15 32  1  0  0  0  0
 15 33  1  0  0  0  0
 16 34  1  0  0  0  0
 16 35  1  0  0  0  0
 16 36  1  0  0  0  0
 18 37  1  0  0  0  0
 18 38  1  0  0  0  0
 19 39  1  0  0  0  0
 19 40  1  0  0  0  0
 19 41  1  0  0  0  0
M  END
