 xtb: 6.7.1 (edcfbbe)
          04092505213D

 41 40  0     0  0            999 V2000
    3.8322   -0.1461    2.6985 C   0  0  0  0  0  0  0  0  0  0  0  0
    4.6515   -0.2106    1.4272 C   0  0  0  0  0  0  0  0  0  0  0  0
    3.9854   -0.9508    0.3748 O   0  0  0  0  0  0  0  0  0  0  0  0
    2.6447   -0.5498   -0.3454 P   0  0  0  0  0  0  0  0  0  0  0  0
    2.4729   -1.5652   -2.0114 S   0  0  0  0  0  0  0  0  0  0  0  0
    2.8186    1.0365   -0.4323 O   0  0  0  0  0  0  0  0  0  0  0  0
    1.8004    1.9638   -0.8313 C   0  0  0  0  0  0  0  0  0  0  0  0
    1.6099    1.9949   -2.3345 C   0  0  0  0  0  0  0  0  0  0  0  0
    1.0607   -0.8501    1.0534 S   0  0  0  0  0  0  0  0  0  0  0  0
   -0.1594   -1.5995   -0.0477 C   0  0  0  0  0  0  0  0  0  0  0  0
   -0.8914   -0.4427   -1.2489 S   0  0  0  0  0  0  0  0  0  0  0  0
   -2.3253    0.4665    0.0115 P   0  0  0  0  0  0  0  0  0  0  0  0
   -3.5116    1.7949   -0.8016 S   0  0  0  0  0  0  0  0  0  0  0  0
   -1.3525    0.9993    1.1438 O   0  0  0  0  0  0  0  0  0  0  0  0
   -1.7628    1.9962    2.1037 C   0  0  0  0  0  0  0  0  0  0  0  0
   -2.8110    1.4679    3.0595 C   0  0  0  0  0  0  0  0  0  0  0  0
   -3.0679   -0.7416    0.7497 O   0  0  0  0  0  0  0  0  0  0  0  0
   -4.2951   -1.2905    0.2451 C   0  0  0  0  0  0  0  0  0  0  0  0
   -4.0829   -2.0732   -1.0356 C   0  0  0  0  0  0  0  0  0  0  0  0
    2.9247    0.4335    2.5379 H   0  0  0  0  0  0  0  0  0  0  0  0
    3.5536   -1.1459    3.0211 H   0  0  0  0  0  0  0  0  0  0  0  0
    4.4216    0.3301    3.4760 H   0  0  0  0  0  0  0  0  0  0  0  0
    5.5762   -0.7709    1.5743 H   0  0  0  0  0  0  0  0  0  0  0  0
    4.8783    0.7889    1.0522 H   0  0  0  0  0  0  0  0  0  0  0  0
    0.8633    1.7080   -0.3251 H   0  0  0  0  0  0  0  0  0  0  0  0
    2.1590    2.9260   -0.4598 H   0  0  0  0  0  0  0  0  0  0  0  0
    0.8727    2.7512   -2.5864 H   0  0  0  0  0  0  0  0  0  0  0  0
    2.5501    2.2267   -2.8274 H   0  0  0  0  0  0  0  0  0  0  0  0
    1.2570    1.0301   -2.6944 H   0  0  0  0  0  0  0  0  0  0  0  0
   -0.9404   -2.0083    0.5878 H   0  0  0  0  0  0  0  0  0  0  0  0
    0.3250   -2.3698   -0.6471 H   0  0  0  0  0  0  0  0  0  0  0  0
   -0.8375    2.2517    2.6216 H   0  0  0  0  0  0  0  0  0  0  0  0
   -2.1402    2.8656    1.5562 H   0  0  0  0  0  0  0  0  0  0  0  0
   -3.7394    1.2752    2.5241 H   0  0  0  0  0  0  0  0  0  0  0  0
   -2.4684    0.5443    3.5185 H   0  0  0  0  0  0  0  0  0  0  0  0
   -2.9975    2.2081    3.8314 H   0  0  0  0  0  0  0  0  0  0  0  0
   -4.6548   -1.9279    1.0541 H   0  0  0  0  0  0  0  0  0  0  0  0
   -4.9983   -0.4687    0.0755 H   0  0  0  0  0  0  0  0  0  0  0  0
   -3.3466   -2.8598   -0.8896 H   0  0  0  0  0  0  0  0  0  0  0  0
   -5.0233   -2.5178   -1.3451 H   0  0  0  0  0  0  0  0  0  0  0  0
   -3.7333   -1.4065   -1.8239 H   0  0  0  0  0  0  0  0  0  0  0  0
  1  2  1  0  0  0  0
  2  3  1  0  0  0  0
  3  4  2  0  0  0  0
  4  5  2  0  0  0  0
  4  6  2  0  0  0  0
  6  7  1  0  0  0  0
  7  8  1  0  0  0  0
  4  9  1  0  0  0  0
  9 10  1  0  0  0  0
 10 11  1  0  0  0  0
 11 12  1  0  0  0  0
 12 13  2  0  0  0  0
 12 14  2  0  0  0  0
 14 15  1  0  0  0  0
 15 16  1  0  0  0  0
 12 17  1  0  0  0  0
 17 18  1  0  0  0  0
 18 19  1  0  0  0  0
  1 20  1  0  0  0  0
  1 21  1  0  0  0  0
  1 22  1  0  0  0  0
  2 23  1  0  0  0  0
  2 24  1  0  0  0  0
  7 25  1  0  0  0  0
  7 26  1  0  0  0  0
  8 27  1  0  0  0  0
  8 28  1  0  0  0  0
  8 29  1  0  0  0  0
 10 30  1  0  0  0  0
 10 31  1  0  0  0  0
 15 32  1  0  0  0  0
 15 33  1  0  0  0  0
 16 34  1  0  0  0  0
 16 35  1  0  0  0  0
 16 36  1  0  0  0  0
 18 37  1  0  0  0  0
 18 38  1  0  0  0  0
 19 39  1  0  0  0  0
 19 40  1  0  0  0  0
 19 41  1  0  0  0  0
M  END
