 xtb: 6.7.1 (edcfbbe)
          04092505213D

 41 40  0     0  0            999 V2000
    2.7087   -0.9666    3.0725 C   0  0  0  0  0  0  0  0  0  0  0  0
    1.8430    0.2092    2.6726 C   0  0  0  0  0  0  0  0  0  0  0  0
    1.3052    0.0684    1.3386 O   0  0  0  0  0  0  0  0  0  0  0  0
    2.1692   -0.1352    0.0308 P   0  0  0  0  0  0  0  0  0  0  0  0
    2.8240   -1.9401   -0.3859 S   0  0  0  0  0  0  0  0  0  0  0  0
    3.2761    0.9921    0.1965 O   0  0  0  0  0  0  0  0  0  0  0  0
    4.4004    1.1016   -0.7027 C   0  0  0  0  0  0  0  0  0  0  0  0
    5.6272    0.4440   -0.1013 C   0  0  0  0  0  0  0  0  0  0  0  0
    0.8648    0.6608   -1.4385 S   0  0  0  0  0  0  0  0  0  0  0  0
    0.0066   -0.8860   -1.8294 C   0  0  0  0  0  0  0  0  0  0  0  0
   -0.8896   -1.5674   -0.4086 S   0  0  0  0  0  0  0  0  0  0  0  0
   -2.2139    0.0651   -0.1530 P   0  0  0  0  0  0  0  0  0  0  0  0
   -2.8299    0.9193   -1.8104 S   0  0  0  0  0  0  0  0  0  0  0  0
   -1.4355    0.9947    0.8607 O   0  0  0  0  0  0  0  0  0  0  0  0
   -1.5632    2.4300    0.8414 C   0  0  0  0  0  0  0  0  0  0  0  0
   -2.8903    2.8639    1.4268 C   0  0  0  0  0  0  0  0  0  0  0  0
   -3.3191   -0.5400    0.8132 O   0  0  0  0  0  0  0  0  0  0  0  0
   -4.2604   -1.5476    0.3905 C   0  0  0  0  0  0  0  0  0  0  0  0
   -5.5315   -0.9178   -0.1463 C   0  0  0  0  0  0  0  0  0  0  0  0
    2.1545   -1.8970    2.9694 H   0  0  0  0  0  0  0  0  0  0  0  0
    3.5888   -1.0178    2.4326 H   0  0  0  0  0  0  0  0  0  0  0  0
    3.0253   -0.8481    4.1041 H   0  0  0  0  0  0  0  0  0  0  0  0
    2.4067    1.1438    2.7149 H   0  0  0  0  0  0  0  0  0  0  0  0
    0.9497    0.2812    3.2959 H   0  0  0  0  0  0  0  0  0  0  0  0
    4.1433    0.6436   -1.6612 H   0  0  0  0  0  0  0  0  0  0  0  0
    4.5455    2.1747   -0.8375 H   0  0  0  0  0  0  0  0  0  0  0  0
    5.4601   -0.6251    0.0122 H   0  0  0  0  0  0  0  0  0  0  0  0
    6.4745    0.5996   -0.7611 H   0  0  0  0  0  0  0  0  0  0  0  0
    5.8457    0.8750    0.8718 H   0  0  0  0  0  0  0  0  0  0  0  0
    0.7308   -1.6428   -2.1300 H   0  0  0  0  0  0  0  0  0  0  0  0
   -0.6931   -0.6571   -2.6328 H   0  0  0  0  0  0  0  0  0  0  0  0
   -0.7173    2.7805    1.4342 H   0  0  0  0  0  0  0  0  0  0  0  0
   -1.4592    2.7787   -0.1918 H   0  0  0  0  0  0  0  0  0  0  0  0
   -3.0090    2.4600    2.4286 H   0  0  0  0  0  0  0  0  0  0  0  0
   -2.9342    3.9477    1.4622 H   0  0  0  0  0  0  0  0  0  0  0  0
   -3.7017    2.4946    0.8005 H   0  0  0  0  0  0  0  0  0  0  0  0
   -3.7894   -2.1883   -0.3609 H   0  0  0  0  0  0  0  0  0  0  0  0
   -4.4561   -2.1308    1.2923 H   0  0  0  0  0  0  0  0  0  0  0  0
   -5.3157   -0.3293   -1.0353 H   0  0  0  0  0  0  0  0  0  0  0  0
   -6.2367   -1.7014   -0.4036 H   0  0  0  0  0  0  0  0  0  0  0  0
   -5.9731   -0.2691    0.6050 H   0  0  0  0  0  0  0  0  0  0  0  0
  1  2  1  0  0  0  0
  2  3  1  0  0  0  0
  3  4  2  0  0  0  0
  4  5  2  0  0  0  0
  4  6  2  0  0  0  0
  6  7  1  0  0  0  0
  7  8  1  0  0  0  0
  4  9  1  0  0  0  0
  9 10  1  0  0  0  0
 10 11  1  0  0  0  0
 11 12  1  0  0  0  0
 12 13  2  0  0  0  0
 12 14  2  0  0  0  0
 14 15  1  0  0  0  0
 15 16  1  0  0  0  0
 12 17  2  0  0  0  0
 17 18  1  0  0  0  0
 18 19  1  0  0  0  0
  1 20  1  0  0  0  0
  1 21  1  0  0  0  0
  1 22  1  0  0  0  0
  2 23  1  0  0  0  0
  2 24  1  0  0  0  0
  7 25  1  0  0  0  0
  7 26  1  0  0  0  0
  8 27  1  0  0  0  0
  8 28  1  0  0  0  0
  8 29  1  0  0  0  0
 10 30  1  0  0  0  0
 10 31  1  0  0  0  0
 15 32  1  0  0  0  0
 15 33  1  0  0  0  0
 16 34  1  0  0  0  0
 16 35  1  0  0  0  0
 16 36  1  0  0  0  0
 18 37  1  0  0  0  0
 18 38  1  0  0  0  0
 19 39  1  0  0  0  0
 19 40  1  0  0  0  0
 19 41  1  0  0  0  0
M  END
