 xtb: 6.7.1 (edcfbbe)
          04032520123D

 10 10  0     0  0            999 V2000
   -0.9784    0.7042    0.0000 C   0  0  0  0  0  0  0  0  0  0  0  0
   -0.9777   -0.7051   -0.0001 C   0  0  0  0  0  0  0  0  0  0  0  0
    0.3307   -1.1065    0.0001 C   0  0  0  0  0  0  0  0  0  0  0  0
    1.1156    0.0005   -0.0001 N   0  0  0  0  0  0  0  0  0  0  0  0
    0.3297    1.1068    0.0000 C   0  0  0  0  0  0  0  0  0  0  0  0
   -1.8423    1.3402    0.0001 H   0  0  0  0  0  0  0  0  0  0  0  0
   -1.8408   -1.3418    0.0002 H   0  0  0  0  0  0  0  0  0  0  0  0
    0.7503   -2.0927    0.0004 H   0  0  0  0  0  0  0  0  0  0  0  0
    2.1215    0.0009   -0.0001 H   0  0  0  0  0  0  0  0  0  0  0  0
    0.7485    2.0933    0.0003 H   0  0  0  0  0  0  0  0  0  0  0  0
  1  2  4  0  0  0  0
  2  3  2  0  0  0  0
  3  4  4  0  0  0  0
  1  5  2  0  0  0  0
  4  5  4  0  0  0  0
  1  6  1  0  0  0  0
  2  7  1  0  0  0  0
  3  8  1  0  0  0  0
  4  9  1  0  0  0  0
  5 10  1  0  0  0  0
M  END
