 xtb: 6.7.1 (edcfbbe)
          04092505213D

 41 40  0     0  0            999 V2000
    0.0207   -0.6665    3.1939 C   0  0  0  0  0  0  0  0  0  0  0  0
    1.2535   -0.1474    2.4850 C   0  0  0  0  0  0  0  0  0  0  0  0
    1.5749   -1.0769    1.4160 O   0  0  0  0  0  0  0  0  0  0  0  0
    2.3774   -0.6500    0.1342 P   0  0  0  0  0  0  0  0  0  0  0  0
    2.8320   -2.1653   -1.0131 S   0  0  0  0  0  0  0  0  0  0  0  0
    3.6021    0.1440    0.7609 O   0  0  0  0  0  0  0  0  0  0  0  0
    4.6743    0.6448   -0.0658 C   0  0  0  0  0  0  0  0  0  0  0  0
    5.8452    0.9667    0.8403 C   0  0  0  0  0  0  0  0  0  0  0  0
    1.2626    0.9085   -0.8195 S   0  0  0  0  0  0  0  0  0  0  0  0
    0.3133   -0.1764   -1.9071 C   0  0  0  0  0  0  0  0  0  0  0  0
   -0.8965   -1.1831   -1.0137 S   0  0  0  0  0  0  0  0  0  0  0  0
   -2.2448    0.4088   -0.6278 P   0  0  0  0  0  0  0  0  0  0  0  0
   -2.4833    1.7407   -2.0342 S   0  0  0  0  0  0  0  0  0  0  0  0
   -1.6380    0.9551    0.7489 O   0  0  0  0  0  0  0  0  0  0  0  0
   -1.8003    2.3276    1.1568 C   0  0  0  0  0  0  0  0  0  0  0  0
   -3.2250    2.6058    1.5907 C   0  0  0  0  0  0  0  0  0  0  0  0
   -3.6019   -0.3258   -0.2745 O   0  0  0  0  0  0  0  0  0  0  0  0
   -3.6952   -1.3470    0.7506 C   0  0  0  0  0  0  0  0  0  0  0  0
   -5.1080   -1.8909    0.7247 C   0  0  0  0  0  0  0  0  0  0  0  0
   -0.8245   -0.6737    2.5108 H   0  0  0  0  0  0  0  0  0  0  0  0
    0.1948   -1.6794    3.5451 H   0  0  0  0  0  0  0  0  0  0  0  0
   -0.2025   -0.0238    4.0395 H   0  0  0  0  0  0  0  0  0  0  0  0
    2.1172   -0.1045    3.1506 H   0  0  0  0  0  0  0  0  0  0  0  0
    1.0836    0.8409    2.0473 H   0  0  0  0  0  0  0  0  0  0  0  0
    4.9337   -0.1230   -0.8018 H   0  0  0  0  0  0  0  0  0  0  0  0
    4.3135    1.5350   -0.5879 H   0  0  0  0  0  0  0  0  0  0  0  0
    5.5534    1.7117    1.5746 H   0  0  0  0  0  0  0  0  0  0  0  0
    6.1734    0.0697    1.3577 H   0  0  0  0  0  0  0  0  0  0  0  0
    6.6626    1.3533    0.2407 H   0  0  0  0  0  0  0  0  0  0  0  0
    0.9923   -0.8719   -2.4013 H   0  0  0  0  0  0  0  0  0  0  0  0
   -0.2022    0.4622   -2.6250 H   0  0  0  0  0  0  0  0  0  0  0  0
   -1.0932    2.4492    1.9783 H   0  0  0  0  0  0  0  0  0  0  0  0
   -1.5157    2.9751    0.3219 H   0  0  0  0  0  0  0  0  0  0  0  0
   -3.3097    3.6397    1.9100 H   0  0  0  0  0  0  0  0  0  0  0  0
   -3.9014    2.4386    0.7524 H   0  0  0  0  0  0  0  0  0  0  0  0
   -3.5091    1.9520    2.4111 H   0  0  0  0  0  0  0  0  0  0  0  0
   -2.9606   -2.1267    0.5295 H   0  0  0  0  0  0  0  0  0  0  0  0
   -3.4584   -0.8902    1.7145 H   0  0  0  0  0  0  0  0  0  0  0  0
   -5.8190   -1.0925    0.9162 H   0  0  0  0  0  0  0  0  0  0  0  0
   -5.3226   -2.3230   -0.2483 H   0  0  0  0  0  0  0  0  0  0  0  0
   -5.2092   -2.6558    1.4879 H   0  0  0  0  0  0  0  0  0  0  0  0
  1  2  1  0  0  0  0
  2  3  1  0  0  0  0
  3  4  2  0  0  0  0
  4  5  2  0  0  0  0
  4  6  2  0  0  0  0
  6  7  1  0  0  0  0
  7  8  1  0  0  0  0
  4  9  1  0  0  0  0
  9 10  1  0  0  0  0
 10 11  1  0  0  0  0
 11 12  1  0  0  0  0
 12 13  2  0  0  0  0
 12 14  1  0  0  0  0
 14 15  1  0  0  0  0
 15 16  1  0  0  0  0
 12 17  2  0  0  0  0
 17 18  1  0  0  0  0
 18 19  1  0  0  0  0
  1 20  1  0  0  0  0
  1 21  1  0  0  0  0
  1 22  1  0  0  0  0
  2 23  1  0  0  0  0
  2 24  1  0  0  0  0
  7 25  1  0  0  0  0
  7 26  1  0  0  0  0
  8 27  1  0  0  0  0
  8 28  1  0  0  0  0
  8 29  1  0  0  0  0
 10 30  1  0  0  0  0
 10 31  1  0  0  0  0
 15 32  1  0  0  0  0
 15 33  1  0  0  0  0
 16 34  1  0  0  0  0
 16 35  1  0  0  0  0
 16 36  1  0  0  0  0
 18 37  1  0  0  0  0
 18 38  1  0  0  0  0
 19 39  1  0  0  0  0
 19 40  1  0  0  0  0
 19 41  1  0  0  0  0
M  END
