 xtb: 6.7.1 (edcfbbe)
          04092505213D

 41 40  0     0  0            999 V2000
    4.0462    0.0945   -2.4203 C   0  0  0  0  0  0  0  0  0  0  0  0
    4.4886   -0.2532   -1.0129 C   0  0  0  0  0  0  0  0  0  0  0  0
    3.3749   -0.5481   -0.1560 O   0  0  0  0  0  0  0  0  0  0  0  0
    2.3583    0.5899    0.3212 P   0  0  0  0  0  0  0  0  0  0  0  0
    3.1718    2.3325    0.6819 S   0  0  0  0  0  0  0  0  0  0  0  0
    1.6355   -0.1208    1.5393 O   0  0  0  0  0  0  0  0  0  0  0  0
    2.1261   -0.0157    2.8917 C   0  0  0  0  0  0  0  0  0  0  0  0
    3.4502   -0.7270    3.0711 C   0  0  0  0  0  0  0  0  0  0  0  0
    0.7715    0.5374   -1.0786 S   0  0  0  0  0  0  0  0  0  0  0  0
    0.3578   -1.2285   -0.9414 C   0  0  0  0  0  0  0  0  0  0  0  0
   -0.7942   -1.6038    0.4091 S   0  0  0  0  0  0  0  0  0  0  0  0
   -2.5058   -0.6435   -0.3748 P   0  0  0  0  0  0  0  0  0  0  0  0
   -2.4527   -0.2506   -2.3012 S   0  0  0  0  0  0  0  0  0  0  0  0
   -2.8488    0.6195    0.5397 O   0  0  0  0  0  0  0  0  0  0  0  0
   -2.3062    1.9345    0.3413 C   0  0  0  0  0  0  0  0  0  0  0  0
   -1.2932    2.2538    1.4233 C   0  0  0  0  0  0  0  0  0  0  0  0
   -3.5627   -1.6919    0.1565 O   0  0  0  0  0  0  0  0  0  0  0  0
   -4.9552   -1.3983    0.4053 C   0  0  0  0  0  0  0  0  0  0  0  0
   -5.6852   -0.9651   -0.8492 C   0  0  0  0  0  0  0  0  0  0  0  0
    3.4363   -0.7020   -2.8393 H   0  0  0  0  0  0  0  0  0  0  0  0
    3.4618    1.0146   -2.4089 H   0  0  0  0  0  0  0  0  0  0  0  0
    4.9206    0.2423   -3.0459 H   0  0  0  0  0  0  0  0  0  0  0  0
    5.0516    0.5775   -0.5751 H   0  0  0  0  0  0  0  0  0  0  0  0
    5.0898   -1.1632   -0.9910 H   0  0  0  0  0  0  0  0  0  0  0  0
    2.2203    1.0455    3.1431 H   0  0  0  0  0  0  0  0  0  0  0  0
    1.3355   -0.4737    3.4877 H   0  0  0  0  0  0  0  0  0  0  0  0
    3.7242   -0.7155    4.1214 H   0  0  0  0  0  0  0  0  0  0  0  0
    3.3741   -1.7554    2.7280 H   0  0  0  0  0  0  0  0  0  0  0  0
    4.2247   -0.2183    2.4986 H   0  0  0  0  0  0  0  0  0  0  0  0
    1.2616   -1.8015   -0.7525 H   0  0  0  0  0  0  0  0  0  0  0  0
   -0.1028   -1.4980   -1.8909 H   0  0  0  0  0  0  0  0  0  0  0  0
   -1.8602    1.9957   -0.6573 H   0  0  0  0  0  0  0  0  0  0  0  0
   -3.1605    2.6125    0.3955 H   0  0  0  0  0  0  0  0  0  0  0  0
   -0.9178    3.2619    1.2776 H   0  0  0  0  0  0  0  0  0  0  0  0
   -1.7556    2.1765    2.4033 H   0  0  0  0  0  0  0  0  0  0  0  0
   -0.4547    1.5612    1.3792 H   0  0  0  0  0  0  0  0  0  0  0  0
   -5.3463   -2.3417    0.7902 H   0  0  0  0  0  0  0  0  0  0  0  0
   -5.0128   -0.6283    1.1776 H   0  0  0  0  0  0  0  0  0  0  0  0
   -5.2744   -0.0259   -1.2177 H   0  0  0  0  0  0  0  0  0  0  0  0
   -5.5758   -1.7157   -1.6284 H   0  0  0  0  0  0  0  0  0  0  0  0
   -6.7386   -0.8287   -0.6259 H   0  0  0  0  0  0  0  0  0  0  0  0
  1  2  1  0  0  0  0
  2  3  1  0  0  0  0
  3  4  1  0  0  0  0
  4  5  2  0  0  0  0
  4  6  2  0  0  0  0
  6  7  1  0  0  0  0
  7  8  1  0  0  0  0
  4  9  1  0  0  0  0
  9 10  1  0  0  0  0
 10 11  1  0  0  0  0
 11 12  1  0  0  0  0
 12 13  2  0  0  0  0
 12 14  2  0  0  0  0
 14 15  1  0  0  0  0
 15 16  1  0  0  0  0
 12 17  2  0  0  0  0
 17 18  1  0  0  0  0
 18 19  1  0  0  0  0
  1 20  1  0  0  0  0
  1 21  1  0  0  0  0
  1 22  1  0  0  0  0
  2 23  1  0  0  0  0
  2 24  1  0  0  0  0
  7 25  1  0  0  0  0
  7 26  1  0  0  0  0
  8 27  1  0  0  0  0
  8 28  1  0  0  0  0
  8 29  1  0  0  0  0
 10 30  1  0  0  0  0
 10 31  1  0  0  0  0
 15 32  1  0  0  0  0
 15 33  1  0  0  0  0
 16 34  1  0  0  0  0
 16 35  1  0  0  0  0
 16 36  1  0  0  0  0
 18 37  1  0  0  0  0
 18 38  1  0  0  0  0
 19 39  1  0  0  0  0
 19 40  1  0  0  0  0
 19 41  1  0  0  0  0
M  END
