 xtb: 6.7.1 (edcfbbe)
          04092505213D

 41 40  0     0  0            999 V2000
    3.3689   -0.7184   -3.1594 C   0  0  0  0  0  0  0  0  0  0  0  0
    4.1941   -0.5363   -1.9035 C   0  0  0  0  0  0  0  0  0  0  0  0
    3.5809    0.3589   -0.9549 O   0  0  0  0  0  0  0  0  0  0  0  0
    2.0908    0.2499   -0.4168 P   0  0  0  0  0  0  0  0  0  0  0  0
    0.6933    0.9745   -1.5828 S   0  0  0  0  0  0  0  0  0  0  0  0
    2.1587    1.1176    0.8944 O   0  0  0  0  0  0  0  0  0  0  0  0
    3.1647    1.0130    1.9327 C   0  0  0  0  0  0  0  0  0  0  0  0
    2.6798    0.1465    3.0788 C   0  0  0  0  0  0  0  0  0  0  0  0
    1.9902   -1.8099    0.1240 S   0  0  0  0  0  0  0  0  0  0  0  0
    0.3453   -1.8885    0.8736 C   0  0  0  0  0  0  0  0  0  0  0  0
   -1.0177   -1.7120   -0.3242 S   0  0  0  0  0  0  0  0  0  0  0  0
   -1.9131    0.0306    0.4587 P   0  0  0  0  0  0  0  0  0  0  0  0
   -0.9822    1.0498    1.8389 S   0  0  0  0  0  0  0  0  0  0  0  0
   -3.2467   -0.6888    0.9904 O   0  0  0  0  0  0  0  0  0  0  0  0
   -4.1014   -0.0859    1.9777 C   0  0  0  0  0  0  0  0  0  0  0  0
   -4.8937    1.0731    1.4067 C   0  0  0  0  0  0  0  0  0  0  0  0
   -2.3519    0.9298   -0.7671 O   0  0  0  0  0  0  0  0  0  0  0  0
   -2.9036    0.3598   -1.9787 C   0  0  0  0  0  0  0  0  0  0  0  0
   -3.7887    1.4043   -2.6252 C   0  0  0  0  0  0  0  0  0  0  0  0
    3.9148   -1.3392   -3.8623 H   0  0  0  0  0  0  0  0  0  0  0  0
    2.4219   -1.2006   -2.9199 H   0  0  0  0  0  0  0  0  0  0  0  0
    3.1555    0.2451   -3.6165 H   0  0  0  0  0  0  0  0  0  0  0  0
    5.1517   -0.0597   -2.1205 H   0  0  0  0  0  0  0  0  0  0  0  0
    4.3581   -1.4959   -1.4058 H   0  0  0  0  0  0  0  0  0  0  0  0
    4.0880    0.6284    1.4959 H   0  0  0  0  0  0  0  0  0  0  0  0
    3.3094    2.0450    2.2560 H   0  0  0  0  0  0  0  0  0  0  0  0
    3.3623    0.2555    3.9156 H   0  0  0  0  0  0  0  0  0  0  0  0
    1.6868    0.4691    3.3858 H   0  0  0  0  0  0  0  0  0  0  0  0
    2.6431   -0.9004    2.7878 H   0  0  0  0  0  0  0  0  0  0  0  0
    0.2456   -1.1049    1.6295 H   0  0  0  0  0  0  0  0  0  0  0  0
    0.2761   -2.8798    1.3139 H   0  0  0  0  0  0  0  0  0  0  0  0
   -4.7502   -0.9021    2.2985 H   0  0  0  0  0  0  0  0  0  0  0  0
   -3.4801    0.2477    2.8153 H   0  0  0  0  0  0  0  0  0  0  0  0
   -5.5544    1.4694    2.1713 H   0  0  0  0  0  0  0  0  0  0  0  0
   -4.2133    1.8609    1.0831 H   0  0  0  0  0  0  0  0  0  0  0  0
   -5.4845    0.7437    0.5556 H   0  0  0  0  0  0  0  0  0  0  0  0
   -2.0596    0.0993   -2.6232 H   0  0  0  0  0  0  0  0  0  0  0  0
   -3.4621   -0.5455   -1.7222 H   0  0  0  0  0  0  0  0  0  0  0  0
   -4.1728    1.0119   -3.5610 H   0  0  0  0  0  0  0  0  0  0  0  0
   -4.6183    1.6580   -1.9710 H   0  0  0  0  0  0  0  0  0  0  0  0
   -3.2085    2.3016   -2.8213 H   0  0  0  0  0  0  0  0  0  0  0  0
  1  2  1  0  0  0  0
  2  3  1  0  0  0  0
  3  4  2  0  0  0  0
  4  5  2  0  0  0  0
  4  6  2  0  0  0  0
  6  7  1  0  0  0  0
  7  8  1  0  0  0  0
  4  9  1  0  0  0  0
  9 10  1  0  0  0  0
 10 11  1  0  0  0  0
 11 12  1  0  0  0  0
 12 13  2  0  0  0  0
 12 14  1  0  0  0  0
 14 15  1  0  0  0  0
 15 16  1  0  0  0  0
 12 17  2  0  0  0  0
 17 18  1  0  0  0  0
 18 19  1  0  0  0  0
  1 20  1  0  0  0  0
  1 21  1  0  0  0  0
  1 22  1  0  0  0  0
  2 23  1  0  0  0  0
  2 24  1  0  0  0  0
  7 25  1  0  0  0  0
  7 26  1  0  0  0  0
  8 27  1  0  0  0  0
  8 28  1  0  0  0  0
  8 29  1  0  0  0  0
 10 30  1  0  0  0  0
 10 31  1  0  0  0  0
 15 32  1  0  0  0  0
 15 33  1  0  0  0  0
 16 34  1  0  0  0  0
 16 35  1  0  0  0  0
 16 36  1  0  0  0  0
 18 37  1  0  0  0  0
 18 38  1  0  0  0  0
 19 39  1  0  0  0  0
 19 40  1  0  0  0  0
 19 41  1  0  0  0  0
M  END
