 xtb: 6.7.1 (edcfbbe)
          04092505203D

 41 40  0     0  0            999 V2000
    5.4341    0.1688   -0.7084 C   0  0  0  0  0  0  0  0  0  0  0  0
    4.4750   -0.6846    0.0983 C   0  0  0  0  0  0  0  0  0  0  0  0
    3.3649    0.1092    0.5643 O   0  0  0  0  0  0  0  0  0  0  0  0
    1.9442    0.0812   -0.1542 P   0  0  0  0  0  0  0  0  0  0  0  0
    2.0158    0.0573   -2.1191 S   0  0  0  0  0  0  0  0  0  0  0  0
    1.2028    1.2418    0.6222 O   0  0  0  0  0  0  0  0  0  0  0  0
    1.7099    2.5815    0.7983 C   0  0  0  0  0  0  0  0  0  0  0  0
    2.0535    3.2486   -0.5163 C   0  0  0  0  0  0  0  0  0  0  0  0
    1.0326   -1.6185    0.6844 S   0  0  0  0  0  0  0  0  0  0  0  0
   -0.1734   -2.0454   -0.6151 C   0  0  0  0  0  0  0  0  0  0  0  0
   -1.8787   -1.9796   -0.0351 S   0  0  0  0  0  0  0  0  0  0  0  0
   -2.0827    0.1349    0.1217 P   0  0  0  0  0  0  0  0  0  0  0  0
   -1.2957    1.1696   -1.3418 S   0  0  0  0  0  0  0  0  0  0  0  0
   -1.4901    0.6186    1.5006 O   0  0  0  0  0  0  0  0  0  0  0  0
   -1.9788    0.2234    2.8089 C   0  0  0  0  0  0  0  0  0  0  0  0
   -1.1428   -0.8962    3.3960 C   0  0  0  0  0  0  0  0  0  0  0  0
   -3.6413    0.3043    0.3829 O   0  0  0  0  0  0  0  0  0  0  0  0
   -4.6893   -0.3306   -0.3745 C   0  0  0  0  0  0  0  0  0  0  0  0
   -4.5961   -0.0476   -1.8588 C   0  0  0  0  0  0  0  0  0  0  0  0
    5.7622    1.0226   -0.1221 H   0  0  0  0  0  0  0  0  0  0  0  0
    6.2956   -0.4289   -0.9874 H   0  0  0  0  0  0  0  0  0  0  0  0
    4.9441    0.5254   -1.6122 H   0  0  0  0  0  0  0  0  0  0  0  0
    4.9449   -1.0699    1.0047 H   0  0  0  0  0  0  0  0  0  0  0  0
    4.0979   -1.5159   -0.5030 H   0  0  0  0  0  0  0  0  0  0  0  0
    0.8889    3.0952    1.3024 H   0  0  0  0  0  0  0  0  0  0  0  0
    2.5818    2.5287    1.4545 H   0  0  0  0  0  0  0  0  0  0  0  0
    2.3343    4.2817   -0.3381 H   0  0  0  0  0  0  0  0  0  0  0  0
    2.8825    2.7292   -0.9958 H   0  0  0  0  0  0  0  0  0  0  0  0
    1.1954    3.2175   -1.1861 H   0  0  0  0  0  0  0  0  0  0  0  0
    0.0037   -3.0751   -0.9145 H   0  0  0  0  0  0  0  0  0  0  0  0
   -0.0353   -1.3596   -1.4567 H   0  0  0  0  0  0  0  0  0  0  0  0
   -1.8940    1.1332    3.4056 H   0  0  0  0  0  0  0  0  0  0  0  0
   -3.0283   -0.0628    2.7238 H   0  0  0  0  0  0  0  0  0  0  0  0
   -1.4655   -1.0755    4.4167 H   0  0  0  0  0  0  0  0  0  0  0  0
   -1.2579   -1.8123    2.8218 H   0  0  0  0  0  0  0  0  0  0  0  0
   -0.0915   -0.6194    3.3965 H   0  0  0  0  0  0  0  0  0  0  0  0
   -4.6450   -1.4060   -0.1822 H   0  0  0  0  0  0  0  0  0  0  0  0
   -5.6016    0.0882    0.0539 H   0  0  0  0  0  0  0  0  0  0  0  0
   -3.6851   -0.4811   -2.2690 H   0  0  0  0  0  0  0  0  0  0  0  0
   -5.4530   -0.4823   -2.3631 H   0  0  0  0  0  0  0  0  0  0  0  0
   -4.5749    1.0244   -2.0407 H   0  0  0  0  0  0  0  0  0  0  0  0
  1  2  1  0  0  0  0
  2  3  1  0  0  0  0
  3  4  2  0  0  0  0
  4  5  2  0  0  0  0
  4  6  2  0  0  0  0
  6  7  1  0  0  0  0
  7  8  1  0  0  0  0
  4  9  1  0  0  0  0
  9 10  1  0  0  0  0
 10 11  1  0  0  0  0
 11 12  1  0  0  0  0
 12 13  2  0  0  0  0
 12 14  2  0  0  0  0
 14 15  1  0  0  0  0
 15 16  1  0  0  0  0
 12 17  2  0  0  0  0
 17 18  1  0  0  0  0
 18 19  1  0  0  0  0
  1 20  1  0  0  0  0
  1 21  1  0  0  0  0
  1 22  1  0  0  0  0
  2 23  1  0  0  0  0
  2 24  1  0  0  0  0
  7 25  1  0  0  0  0
  7 26  1  0  0  0  0
  8 27  1  0  0  0  0
  8 28  1  0  0  0  0
  8 29  1  0  0  0  0
 10 30  1  0  0  0  0
 10 31  1  0  0  0  0
 15 32  1  0  0  0  0
 15 33  1  0  0  0  0
 16 34  1  0  0  0  0
 16 35  1  0  0  0  0
 16 36  1  0  0  0  0
 18 37  1  0  0  0  0
 18 38  1  0  0  0  0
 19 39  1  0  0  0  0
 19 40  1  0  0  0  0
 19 41  1  0  0  0  0
M  END
