 xtb: 6.7.1 (edcfbbe)
          04092505213D

 41 40  0     0  0            999 V2000
    2.2541    1.0105   -2.2157 C   0  0  0  0  0  0  0  0  0  0  0  0
    2.5775    1.8266   -0.9826 C   0  0  0  0  0  0  0  0  0  0  0  0
    2.0424    1.2510    0.2348 O   0  0  0  0  0  0  0  0  0  0  0  0
    2.3832   -0.1806    0.8108 P   0  0  0  0  0  0  0  0  0  0  0  0
    2.2835   -0.2302    2.7659 S   0  0  0  0  0  0  0  0  0  0  0  0
    3.8187   -0.4659    0.1953 O   0  0  0  0  0  0  0  0  0  0  0  0
    4.7133   -1.4469    0.7528 C   0  0  0  0  0  0  0  0  0  0  0  0
    4.1929   -2.8599    0.5893 C   0  0  0  0  0  0  0  0  0  0  0  0
    1.0762   -1.5487   -0.1804 S   0  0  0  0  0  0  0  0  0  0  0  0
   -0.2480   -1.4862    1.0501 C   0  0  0  0  0  0  0  0  0  0  0  0
   -0.9539    0.1729    1.2857 S   0  0  0  0  0  0  0  0  0  0  0  0
   -2.2159    0.2294   -0.4107 P   0  0  0  0  0  0  0  0  0  0  0  0
   -1.4463    0.0259   -2.2041 S   0  0  0  0  0  0  0  0  0  0  0  0
   -3.0008    1.5922   -0.1896 O   0  0  0  0  0  0  0  0  0  0  0  0
   -2.4756    2.8582   -0.6344 C   0  0  0  0  0  0  0  0  0  0  0  0
   -3.6356    3.8229   -0.7776 C   0  0  0  0  0  0  0  0  0  0  0  0
   -3.2726   -0.8687    0.0106 O   0  0  0  0  0  0  0  0  0  0  0  0
   -4.1531   -1.4870   -0.9539 C   0  0  0  0  0  0  0  0  0  0  0  0
   -5.1835   -0.5087   -1.4754 C   0  0  0  0  0  0  0  0  0  0  0  0
    1.1807    0.8683   -2.3197 H   0  0  0  0  0  0  0  0  0  0  0  0
    2.6247    1.5329   -3.0920 H   0  0  0  0  0  0  0  0  0  0  0  0
    2.7284    0.0329   -2.1584 H   0  0  0  0  0  0  0  0  0  0  0  0
    2.1087    2.8115   -1.0175 H   0  0  0  0  0  0  0  0  0  0  0  0
    3.6572    1.9321   -0.8592 H   0  0  0  0  0  0  0  0  0  0  0  0
    5.6413   -1.2922    0.2005 H   0  0  0  0  0  0  0  0  0  0  0  0
    4.8636   -1.2131    1.8112 H   0  0  0  0  0  0  0  0  0  0  0  0
    3.9297   -3.0512   -0.4479 H   0  0  0  0  0  0  0  0  0  0  0  0
    4.9594   -3.5613    0.9028 H   0  0  0  0  0  0  0  0  0  0  0  0
    3.3088   -3.0043    1.2082 H   0  0  0  0  0  0  0  0  0  0  0  0
    0.1534   -1.7697    2.0229 H   0  0  0  0  0  0  0  0  0  0  0  0
   -1.0232   -2.1756    0.7256 H   0  0  0  0  0  0  0  0  0  0  0  0
   -1.7548    3.2076    0.1102 H   0  0  0  0  0  0  0  0  0  0  0  0
   -1.9603    2.7059   -1.5894 H   0  0  0  0  0  0  0  0  0  0  0  0
   -3.2555    4.7942   -1.0763 H   0  0  0  0  0  0  0  0  0  0  0  0
   -4.3321    3.4636   -1.5298 H   0  0  0  0  0  0  0  0  0  0  0  0
   -4.1576    3.9159    0.1703 H   0  0  0  0  0  0  0  0  0  0  0  0
   -3.5463   -1.8832   -1.7745 H   0  0  0  0  0  0  0  0  0  0  0  0
   -4.6132   -2.3058   -0.3993 H   0  0  0  0  0  0  0  0  0  0  0  0
   -5.7168   -0.0485   -0.6478 H   0  0  0  0  0  0  0  0  0  0  0  0
   -4.6902    0.2711   -2.0542 H   0  0  0  0  0  0  0  0  0  0  0  0
   -5.8869   -1.0323   -2.1152 H   0  0  0  0  0  0  0  0  0  0  0  0
  1  2  1  0  0  0  0
  2  3  1  0  0  0  0
  3  4  2  0  0  0  0
  4  5  2  0  0  0  0
  4  6  2  0  0  0  0
  6  7  1  0  0  0  0
  7  8  1  0  0  0  0
  4  9  1  0  0  0  0
  9 10  1  0  0  0  0
 10 11  1  0  0  0  0
 11 12  1  0  0  0  0
 12 13  2  0  0  0  0
 12 14  2  0  0  0  0
 14 15  1  0  0  0  0
 15 16  1  0  0  0  0
 12 17  2  0  0  0  0
 17 18  1  0  0  0  0
 18 19  1  0  0  0  0
  1 20  1  0  0  0  0
  1 21  1  0  0  0  0
  1 22  1  0  0  0  0
  2 23  1  0  0  0  0
  2 24  1  0  0  0  0
  7 25  1  0  0  0  0
  7 26  1  0  0  0  0
  8 27  1  0  0  0  0
  8 28  1  0  0  0  0
  8 29  1  0  0  0  0
 10 30  1  0  0  0  0
 10 31  1  0  0  0  0
 15 32  1  0  0  0  0
 15 33  1  0  0  0  0
 16 34  1  0  0  0  0
 16 35  1  0  0  0  0
 16 36  1  0  0  0  0
 18 37  1  0  0  0  0
 18 38  1  0  0  0  0
 19 39  1  0  0  0  0
 19 40  1  0  0  0  0
 19 41  1  0  0  0  0
M  END
