 xtb: 6.7.1 (edcfbbe)
          04092505213D

 41 40  0     0  0            999 V2000
    3.8147    0.6004   -2.9547 C   0  0  0  0  0  0  0  0  0  0  0  0
    2.5123    0.4638   -2.1935 C   0  0  0  0  0  0  0  0  0  0  0  0
    2.7867   -0.2490   -0.9729 O   0  0  0  0  0  0  0  0  0  0  0  0
    1.9695   -0.0638    0.3750 P   0  0  0  0  0  0  0  0  0  0  0  0
    1.5141    1.7730    0.8598 S   0  0  0  0  0  0  0  0  0  0  0  0
    2.9383   -0.6840    1.4515 O   0  0  0  0  0  0  0  0  0  0  0  0
    3.5861   -1.9771    1.3108 C   0  0  0  0  0  0  0  0  0  0  0  0
    3.0017   -2.9692    2.2967 C   0  0  0  0  0  0  0  0  0  0  0  0
    0.4368   -1.5373    0.1499 S   0  0  0  0  0  0  0  0  0  0  0  0
   -0.4563   -1.2523    1.6943 C   0  0  0  0  0  0  0  0  0  0  0  0
   -1.4281    0.2980    1.7488 S   0  0  0  0  0  0  0  0  0  0  0  0
   -2.0686    0.4459   -0.2535 P   0  0  0  0  0  0  0  0  0  0  0  0
   -0.8955    0.9462   -1.7545 S   0  0  0  0  0  0  0  0  0  0  0  0
   -3.3019    1.4441   -0.1188 O   0  0  0  0  0  0  0  0  0  0  0  0
   -3.1664    2.8658   -0.2718 C   0  0  0  0  0  0  0  0  0  0  0  0
   -2.3470    3.4797    0.8456 C   0  0  0  0  0  0  0  0  0  0  0  0
   -2.7876   -0.9533   -0.3845 O   0  0  0  0  0  0  0  0  0  0  0  0
   -3.0095   -1.6495   -1.6326 C   0  0  0  0  0  0  0  0  0  0  0  0
   -2.5976   -3.0979   -1.4611 C   0  0  0  0  0  0  0  0  0  0  0  0
    3.6235    1.1165   -3.8896 H   0  0  0  0  0  0  0  0  0  0  0  0
    4.5304    1.1710   -2.3691 H   0  0  0  0  0  0  0  0  0  0  0  0
    4.2286   -0.3820   -3.1620 H   0  0  0  0  0  0  0  0  0  0  0  0
    1.7699   -0.1044   -2.7597 H   0  0  0  0  0  0  0  0  0  0  0  0
    2.0847    1.4410   -1.9462 H   0  0  0  0  0  0  0  0  0  0  0  0
    3.4765   -2.3226    0.2814 H   0  0  0  0  0  0  0  0  0  0  0  0
    4.6384   -1.7815    1.5218 H   0  0  0  0  0  0  0  0  0  0  0  0
    3.5955   -3.8774    2.2734 H   0  0  0  0  0  0  0  0  0  0  0  0
    3.0263   -2.5539    3.3005 H   0  0  0  0  0  0  0  0  0  0  0  0
    1.9750   -3.2124    2.0351 H   0  0  0  0  0  0  0  0  0  0  0  0
    0.2455   -1.1896    2.5250 H   0  0  0  0  0  0  0  0  0  0  0  0
   -1.1365   -2.0929    1.8113 H   0  0  0  0  0  0  0  0  0  0  0  0
   -2.7027    3.0675   -1.2433 H   0  0  0  0  0  0  0  0  0  0  0  0
   -4.1944    3.2303   -0.2668 H   0  0  0  0  0  0  0  0  0  0  0  0
   -1.3155    3.1266    0.7944 H   0  0  0  0  0  0  0  0  0  0  0  0
   -2.3483    4.5602    0.7452 H   0  0  0  0  0  0  0  0  0  0  0  0
   -2.7595    3.2045    1.8133 H   0  0  0  0  0  0  0  0  0  0  0  0
   -4.0736   -1.5569   -1.8579 H   0  0  0  0  0  0  0  0  0  0  0  0
   -2.4265   -1.1585   -2.4193 H   0  0  0  0  0  0  0  0  0  0  0  0
   -3.1624   -3.5515   -0.6520 H   0  0  0  0  0  0  0  0  0  0  0  0
   -2.7970   -3.6337   -2.3833 H   0  0  0  0  0  0  0  0  0  0  0  0
   -1.5360   -3.1599   -1.2320 H   0  0  0  0  0  0  0  0  0  0  0  0
  1  2  1  0  0  0  0
  2  3  1  0  0  0  0
  3  4  2  0  0  0  0
  4  5  2  0  0  0  0
  4  6  2  0  0  0  0
  6  7  1  0  0  0  0
  7  8  1  0  0  0  0
  4  9  1  0  0  0  0
  9 10  1  0  0  0  0
 10 11  1  0  0  0  0
 11 12  1  0  0  0  0
 12 13  2  0  0  0  0
 12 14  2  0  0  0  0
 14 15  1  0  0  0  0
 15 16  1  0  0  0  0
 12 17  2  0  0  0  0
 17 18  1  0  0  0  0
 18 19  1  0  0  0  0
  1 20  1  0  0  0  0
  1 21  1  0  0  0  0
  1 22  1  0  0  0  0
  2 23  1  0  0  0  0
  2 24  1  0  0  0  0
  7 25  1  0  0  0  0
  7 26  1  0  0  0  0
  8 27  1  0  0  0  0
  8 28  1  0  0  0  0
  8 29  1  0  0  0  0
 10 30  1  0  0  0  0
 10 31  1  0  0  0  0
 15 32  1  0  0  0  0
 15 33  1  0  0  0  0
 16 34  1  0  0  0  0
 16 35  1  0  0  0  0
 16 36  1  0  0  0  0
 18 37  1  0  0  0  0
 18 38  1  0  0  0  0
 19 39  1  0  0  0  0
 19 40  1  0  0  0  0
 19 41  1  0  0  0  0
M  END
