 xtb: 6.7.1 (edcfbbe)
          04032520243D

 17 17  0     0  0            999 V2000
   -1.9184   -0.0002   -0.0015 C   0  0  0  0  0  0  0  0  0  0  0  0
   -1.0588    1.2141    0.3727 C   0  0  0  0  0  0  0  0  0  0  0  0
    0.2748    1.2062   -0.3697 C   0  0  0  0  0  0  0  0  0  0  0  0
    1.0917    0.0000    0.0009 C   0  0  0  0  0  0  0  0  0  0  0  0
    2.3094    0.0004    0.0030 O   0  0  0  0  0  0  0  0  0  0  0  0
    0.2744   -1.2064    0.3693 C   0  0  0  0  0  0  0  0  0  0  0  0
   -1.0582   -1.2142   -0.3750 C   0  0  0  0  0  0  0  0  0  0  0  0
   -2.5641    0.2473   -0.8446 H   0  0  0  0  0  0  0  0  0  0  0  0
   -2.5646   -0.2481    0.8412 H   0  0  0  0  0  0  0  0  0  0  0  0
   -1.5967    2.1344    0.1451 H   0  0  0  0  0  0  0  0  0  0  0  0
   -0.8564    1.2116    1.4452 H   0  0  0  0  0  0  0  0  0  0  0  0
    0.1004    1.1580   -1.4480 H   0  0  0  0  0  0  0  0  0  0  0  0
    0.8552    2.1088   -0.1731 H   0  0  0  0  0  0  0  0  0  0  0  0
    0.8551   -2.1089    0.1732 H   0  0  0  0  0  0  0  0  0  0  0  0
    0.0985   -1.1587    1.4474 H   0  0  0  0  0  0  0  0  0  0  0  0
   -0.8547   -1.2114   -1.4472 H   0  0  0  0  0  0  0  0  0  0  0  0
   -1.5963   -2.1346   -0.1483 H   0  0  0  0  0  0  0  0  0  0  0  0
  1  2  1  0  0  0  0
  2  3  1  0  0  0  0
  3  4  1  0  0  0  0
  4  5  2  0  0  0  0
  4  6  1  0  0  0  0
  1  7  1  0  0  0  0
  6  7  1  0  0  0  0
  1  8  1  0  0  0  0
  1  9  1  0  0  0  0
  2 10  1  0  0  0  0
  2 11  1  0  0  0  0
  3 12  1  0  0  0  0
  3 13  1  0  0  0  0
  6 14  1  0  0  0  0
  6 15  1  0  0  0  0
  7 16  1  0  0  0  0
  7 17  1  0  0  0  0
M  END
