 xtb: 6.7.1 (edcfbbe)
          04092505213D

 41 40  0     0  0            999 V2000
    5.0442   -0.5079   -1.7457 C   0  0  0  0  0  0  0  0  0  0  0  0
    3.7444   -1.2642   -1.9198 C   0  0  0  0  0  0  0  0  0  0  0  0
    2.9744   -1.2863   -0.7002 O   0  0  0  0  0  0  0  0  0  0  0  0
    2.2650    0.0094   -0.1292 P   0  0  0  0  0  0  0  0  0  0  0  0
    1.6475    1.2851   -1.4943 S   0  0  0  0  0  0  0  0  0  0  0  0
    3.3579    0.6071    0.8570 O   0  0  0  0  0  0  0  0  0  0  0  0
    3.2858    1.9377    1.3918 C   0  0  0  0  0  0  0  0  0  0  0  0
    2.2134    2.0562    2.4556 C   0  0  0  0  0  0  0  0  0  0  0  0
    0.9433   -0.9683    1.2008 S   0  0  0  0  0  0  0  0  0  0  0  0
    0.0958   -2.0720    0.0377 C   0  0  0  0  0  0  0  0  0  0  0  0
   -0.8581   -1.2086   -1.2513 S   0  0  0  0  0  0  0  0  0  0  0  0
   -1.9920    0.1071   -0.0354 P   0  0  0  0  0  0  0  0  0  0  0  0
   -1.2701    1.7768    0.6751 S   0  0  0  0  0  0  0  0  0  0  0  0
   -2.4730   -0.9549    1.0570 O   0  0  0  0  0  0  0  0  0  0  0  0
   -2.8162   -0.5624    2.4004 C   0  0  0  0  0  0  0  0  0  0  0  0
   -4.1793    0.0968    2.4433 C   0  0  0  0  0  0  0  0  0  0  0  0
   -3.2265    0.4352   -0.9726 O   0  0  0  0  0  0  0  0  0  0  0  0
   -4.0806   -0.5922   -1.5387 C   0  0  0  0  0  0  0  0  0  0  0  0
   -5.4998   -0.0624   -1.5689 C   0  0  0  0  0  0  0  0  0  0  0  0
    5.6403   -0.6028   -2.6479 H   0  0  0  0  0  0  0  0  0  0  0  0
    4.8357    0.5463   -1.5681 H   0  0  0  0  0  0  0  0  0  0  0  0
    5.5986   -0.9039   -0.8991 H   0  0  0  0  0  0  0  0  0  0  0  0
    3.9152   -2.3186   -2.1410 H   0  0  0  0  0  0  0  0  0  0  0  0
    3.1342   -0.8087   -2.7065 H   0  0  0  0  0  0  0  0  0  0  0  0
    4.2818    2.1112    1.8017 H   0  0  0  0  0  0  0  0  0  0  0  0
    3.0920    2.6356    0.5700 H   0  0  0  0  0  0  0  0  0  0  0  0
    2.3445    1.2850    3.2105 H   0  0  0  0  0  0  0  0  0  0  0  0
    2.2724    3.0342    2.9220 H   0  0  0  0  0  0  0  0  0  0  0  0
    1.2253    1.9463    2.0074 H   0  0  0  0  0  0  0  0  0  0  0  0
   -0.5776   -2.6796    0.6371 H   0  0  0  0  0  0  0  0  0  0  0  0
    0.8236   -2.6873   -0.4860 H   0  0  0  0  0  0  0  0  0  0  0  0
   -2.7941   -1.4949    2.9655 H   0  0  0  0  0  0  0  0  0  0  0  0
   -2.0447    0.1184    2.7726 H   0  0  0  0  0  0  0  0  0  0  0  0
   -4.9387   -0.5751    2.0513 H   0  0  0  0  0  0  0  0  0  0  0  0
   -4.4229    0.3556    3.4687 H   0  0  0  0  0  0  0  0  0  0  0  0
   -4.1627    1.0069    1.8437 H   0  0  0  0  0  0  0  0  0  0  0  0
   -3.7099   -0.8011   -2.5446 H   0  0  0  0  0  0  0  0  0  0  0  0
   -4.0024   -1.4950   -0.9279 H   0  0  0  0  0  0  0  0  0  0  0  0
   -5.5382    0.8595   -2.1422 H   0  0  0  0  0  0  0  0  0  0  0  0
   -6.1451   -0.8017   -2.0323 H   0  0  0  0  0  0  0  0  0  0  0  0
   -5.8498    0.1408   -0.5605 H   0  0  0  0  0  0  0  0  0  0  0  0
  1  2  1  0  0  0  0
  2  3  1  0  0  0  0
  3  4  2  0  0  0  0
  4  5  2  0  0  0  0
  4  6  2  0  0  0  0
  6  7  1  0  0  0  0
  7  8  1  0  0  0  0
  4  9  1  0  0  0  0
  9 10  1  0  0  0  0
 10 11  1  0  0  0  0
 11 12  1  0  0  0  0
 12 13  2  0  0  0  0
 12 14  1  0  0  0  0
 14 15  1  0  0  0  0
 15 16  1  0  0  0  0
 12 17  2  0  0  0  0
 17 18  1  0  0  0  0
 18 19  1  0  0  0  0
  1 20  1  0  0  0  0
  1 21  1  0  0  0  0
  1 22  1  0  0  0  0
  2 23  1  0  0  0  0
  2 24  1  0  0  0  0
  7 25  1  0  0  0  0
  7 26  1  0  0  0  0
  8 27  1  0  0  0  0
  8 28  1  0  0  0  0
  8 29  1  0  0  0  0
 10 30  1  0  0  0  0
 10 31  1  0  0  0  0
 15 32  1  0  0  0  0
 15 33  1  0  0  0  0
 16 34  1  0  0  0  0
 16 35  1  0  0  0  0
 16 36  1  0  0  0  0
 18 37  1  0  0  0  0
 18 38  1  0  0  0  0
 19 39  1  0  0  0  0
 19 40  1  0  0  0  0
 19 41  1  0  0  0  0
M  END
