 xtb: 6.7.1 (edcfbbe)
          04092505213D

 41 40  0     0  0            999 V2000
    1.4141   -0.6119    2.9803 C   0  0  0  0  0  0  0  0  0  0  0  0
    2.1218    0.5887    2.3873 C   0  0  0  0  0  0  0  0  0  0  0  0
    3.0636    0.2342    1.3593 O   0  0  0  0  0  0  0  0  0  0  0  0
    2.7227   -0.6144    0.0572 P   0  0  0  0  0  0  0  0  0  0  0  0
    2.5460   -2.5534    0.2293 S   0  0  0  0  0  0  0  0  0  0  0  0
    3.9482   -0.2842   -0.8748 O   0  0  0  0  0  0  0  0  0  0  0  0
    4.3592    1.0615   -1.2194 C   0  0  0  0  0  0  0  0  0  0  0  0
    5.5062    1.5136   -0.3387 C   0  0  0  0  0  0  0  0  0  0  0  0
    1.0542    0.4326   -0.8092 S   0  0  0  0  0  0  0  0  0  0  0  0
   -0.0565   -0.9707   -1.0709 C   0  0  0  0  0  0  0  0  0  0  0  0
   -1.3265   -1.1105    0.2072 S   0  0  0  0  0  0  0  0  0  0  0  0
   -2.5327    0.5041   -0.5028 P   0  0  0  0  0  0  0  0  0  0  0  0
   -2.6490    0.6969   -2.4450 S   0  0  0  0  0  0  0  0  0  0  0  0
   -1.9276    1.7957    0.1673 O   0  0  0  0  0  0  0  0  0  0  0  0
   -1.6654    1.9533    1.5832 C   0  0  0  0  0  0  0  0  0  0  0  0
   -2.8712    2.5079    2.3132 C   0  0  0  0  0  0  0  0  0  0  0  0
   -3.9152    0.3121    0.2578 O   0  0  0  0  0  0  0  0  0  0  0  0
   -4.9822   -0.4965   -0.2696 C   0  0  0  0  0  0  0  0  0  0  0  0
   -4.6219   -1.9671   -0.3197 C   0  0  0  0  0  0  0  0  0  0  0  0
    0.7757   -1.0880    2.2362 H   0  0  0  0  0  0  0  0  0  0  0  0
    2.1391   -1.3459    3.3235 H   0  0  0  0  0  0  0  0  0  0  0  0
    0.8029   -0.2927    3.8185 H   0  0  0  0  0  0  0  0  0  0  0  0
    2.7353    1.0962    3.1338 H   0  0  0  0  0  0  0  0  0  0  0  0
    1.4018    1.2923    1.9593 H   0  0  0  0  0  0  0  0  0  0  0  0
    4.6639    0.9950   -2.2654 H   0  0  0  0  0  0  0  0  0  0  0  0
    3.4980    1.7301   -1.1311 H   0  0  0  0  0  0  0  0  0  0  0  0
    5.8327    2.4983   -0.6585 H   0  0  0  0  0  0  0  0  0  0  0  0
    5.1912    1.5575    0.7001 H   0  0  0  0  0  0  0  0  0  0  0  0
    6.3344    0.8155   -0.4232 H   0  0  0  0  0  0  0  0  0  0  0  0
    0.5243   -1.8952   -1.0445 H   0  0  0  0  0  0  0  0  0  0  0  0
   -0.5437   -0.8250   -2.0355 H   0  0  0  0  0  0  0  0  0  0  0  0
   -1.3664    0.9856    1.9963 H   0  0  0  0  0  0  0  0  0  0  0  0
   -0.8270    2.6520    1.6163 H   0  0  0  0  0  0  0  0  0  0  0  0
   -2.5995    2.7017    3.3462 H   0  0  0  0  0  0  0  0  0  0  0  0
   -3.1949    3.4347    1.8476 H   0  0  0  0  0  0  0  0  0  0  0  0
   -3.6915    1.7962    2.2857 H   0  0  0  0  0  0  0  0  0  0  0  0
   -5.8122   -0.3091    0.4129 H   0  0  0  0  0  0  0  0  0  0  0  0
   -5.2319   -0.1275   -1.2692 H   0  0  0  0  0  0  0  0  0  0  0  0
   -5.5012   -2.5418   -0.5927 H   0  0  0  0  0  0  0  0  0  0  0  0
   -3.8471   -2.1373   -1.0658 H   0  0  0  0  0  0  0  0  0  0  0  0
   -4.2572   -2.3024    0.6481 H   0  0  0  0  0  0  0  0  0  0  0  0
  1  2  1  0  0  0  0
  2  3  1  0  0  0  0
  3  4  2  0  0  0  0
  4  5  2  0  0  0  0
  4  6  2  0  0  0  0
  6  7  1  0  0  0  0
  7  8  1  0  0  0  0
  4  9  1  0  0  0  0
  9 10  1  0  0  0  0
 10 11  1  0  0  0  0
 11 12  1  0  0  0  0
 12 13  2  0  0  0  0
 12 14  2  0  0  0  0
 14 15  1  0  0  0  0
 15 16  1  0  0  0  0
 12 17  2  0  0  0  0
 17 18  1  0  0  0  0
 18 19  1  0  0  0  0
  1 20  1  0  0  0  0
  1 21  1  0  0  0  0
  1 22  1  0  0  0  0
  2 23  1  0  0  0  0
  2 24  1  0  0  0  0
  7 25  1  0  0  0  0
  7 26  1  0  0  0  0
  8 27  1  0  0  0  0
  8 28  1  0  0  0  0
  8 29  1  0  0  0  0
 10 30  1  0  0  0  0
 10 31  1  0  0  0  0
 15 32  1  0  0  0  0
 15 33  1  0  0  0  0
 16 34  1  0  0  0  0
 16 35  1  0  0  0  0
 16 36  1  0  0  0  0
 18 37  1  0  0  0  0
 18 38  1  0  0  0  0
 19 39  1  0  0  0  0
 19 40  1  0  0  0  0
 19 41  1  0  0  0  0
M  END
