 xtb: 6.7.1 (edcfbbe)
          04092505203D

 41 40  0     0  0            999 V2000
    1.6792   -2.9395    0.9257 C   0  0  0  0  0  0  0  0  0  0  0  0
    1.6095   -1.5919    1.6151 C   0  0  0  0  0  0  0  0  0  0  0  0
    2.6439   -0.6959    1.1786 O   0  0  0  0  0  0  0  0  0  0  0  0
    2.7385    0.0176   -0.2434 P   0  0  0  0  0  0  0  0  0  0  0  0
    3.0917   -1.0837   -1.8235 S   0  0  0  0  0  0  0  0  0  0  0  0
    3.9449    0.9977   -0.0038 O   0  0  0  0  0  0  0  0  0  0  0  0
    4.2439    1.7048    1.2250 C   0  0  0  0  0  0  0  0  0  0  0  0
    3.1550    2.6821    1.6128 C   0  0  0  0  0  0  0  0  0  0  0  0
    0.9812    1.2366   -0.3907 S   0  0  0  0  0  0  0  0  0  0  0  0
    0.1520    0.3756   -1.7432 C   0  0  0  0  0  0  0  0  0  0  0  0
   -0.7514   -1.0996   -1.1977 S   0  0  0  0  0  0  0  0  0  0  0  0
   -2.2187   -0.0666   -0.0751 P   0  0  0  0  0  0  0  0  0  0  0  0
   -2.8458    1.6266   -0.8516 S   0  0  0  0  0  0  0  0  0  0  0  0
   -1.5243    0.0463    1.3427 O   0  0  0  0  0  0  0  0  0  0  0  0
   -1.8670    1.0897    2.2786 C   0  0  0  0  0  0  0  0  0  0  0  0
   -3.2596    0.8902    2.8368 C   0  0  0  0  0  0  0  0  0  0  0  0
   -3.2997   -1.1933    0.2118 O   0  0  0  0  0  0  0  0  0  0  0  0
   -4.1523   -1.7448   -0.8107 C   0  0  0  0  0  0  0  0  0  0  0  0
   -5.4462   -0.9619   -0.9268 C   0  0  0  0  0  0  0  0  0  0  0  0
    1.4659   -2.8382   -0.1368 H   0  0  0  0  0  0  0  0  0  0  0  0
    2.6709   -3.3695    1.0403 H   0  0  0  0  0  0  0  0  0  0  0  0
    0.9437   -3.6040    1.3677 H   0  0  0  0  0  0  0  0  0  0  0  0
    1.7914   -1.6888    2.6875 H   0  0  0  0  0  0  0  0  0  0  0  0
    0.6348   -1.1215    1.4527 H   0  0  0  0  0  0  0  0  0  0  0  0
    4.4088    0.9664    2.0116 H   0  0  0  0  0  0  0  0  0  0  0  0
    5.1789    2.2170    0.9931 H   0  0  0  0  0  0  0  0  0  0  0  0
    2.9554    3.3727    0.7973 H   0  0  0  0  0  0  0  0  0  0  0  0
    2.2347    2.1511    1.8506 H   0  0  0  0  0  0  0  0  0  0  0  0
    3.4749    3.2423    2.4860 H   0  0  0  0  0  0  0  0  0  0  0  0
    0.8942    0.0368   -2.4673 H   0  0  0  0  0  0  0  0  0  0  0  0
   -0.5495    1.0841   -2.1832 H   0  0  0  0  0  0  0  0  0  0  0  0
   -1.1024    1.0126    3.0524 H   0  0  0  0  0  0  0  0  0  0  0  0
   -1.7844    2.0549    1.7687 H   0  0  0  0  0  0  0  0  0  0  0  0
   -3.3503   -0.0997    3.2759 H   0  0  0  0  0  0  0  0  0  0  0  0
   -3.4596    1.6439    3.5917 H   0  0  0  0  0  0  0  0  0  0  0  0
   -3.9912    0.9874    2.0353 H   0  0  0  0  0  0  0  0  0  0  0  0
   -3.6130   -1.7584   -1.7624 H   0  0  0  0  0  0  0  0  0  0  0  0
   -4.3367   -2.7701   -0.4846 H   0  0  0  0  0  0  0  0  0  0  0  0
   -5.2437    0.0608   -1.2371 H   0  0  0  0  0  0  0  0  0  0  0  0
   -6.0850   -1.4348   -1.6657 H   0  0  0  0  0  0  0  0  0  0  0  0
   -5.9588   -0.9426    0.0309 H   0  0  0  0  0  0  0  0  0  0  0  0
  1  2  1  0  0  0  0
  2  3  1  0  0  0  0
  3  4  2  0  0  0  0
  4  5  2  0  0  0  0
  4  6  2  0  0  0  0
  6  7  1  0  0  0  0
  7  8  1  0  0  0  0
  4  9  1  0  0  0  0
  9 10  1  0  0  0  0
 10 11  1  0  0  0  0
 11 12  1  0  0  0  0
 12 13  2  0  0  0  0
 12 14  2  0  0  0  0
 14 15  1  0  0  0  0
 15 16  1  0  0  0  0
 12 17  2  0  0  0  0
 17 18  1  0  0  0  0
 18 19  1  0  0  0  0
  1 20  1  0  0  0  0
  1 21  1  0  0  0  0
  1 22  1  0  0  0  0
  2 23  1  0  0  0  0
  2 24  1  0  0  0  0
  7 25  1  0  0  0  0
  7 26  1  0  0  0  0
  8 27  1  0  0  0  0
  8 28  1  0  0  0  0
  8 29  1  0  0  0  0
 10 30  1  0  0  0  0
 10 31  1  0  0  0  0
 15 32  1  0  0  0  0
 15 33  1  0  0  0  0
 16 34  1  0  0  0  0
 16 35  1  0  0  0  0
 16 36  1  0  0  0  0
 18 37  1  0  0  0  0
 18 38  1  0  0  0  0
 19 39  1  0  0  0  0
 19 40  1  0  0  0  0
 19 41  1  0  0  0  0
M  END
