 xtb: 6.7.1 (edcfbbe)
          04092505213D

 41 40  0     0  0            999 V2000
    4.6937    1.3688    0.0186 C   0  0  0  0  0  0  0  0  0  0  0  0
    3.4698    1.3614   -0.8725 C   0  0  0  0  0  0  0  0  0  0  0  0
    2.7979    0.0880   -0.8134 O   0  0  0  0  0  0  0  0  0  0  0  0
    1.9279   -0.3454    0.4379 P   0  0  0  0  0  0  0  0  0  0  0  0
    1.2155    1.1529    1.4879 S   0  0  0  0  0  0  0  0  0  0  0  0
    2.9428   -1.2799    1.2317 O   0  0  0  0  0  0  0  0  0  0  0  0
    2.5640   -2.3559    2.1063 C   0  0  0  0  0  0  0  0  0  0  0  0
    1.5836   -1.9222    3.1770 C   0  0  0  0  0  0  0  0  0  0  0  0
    0.6398   -1.7710   -0.4871 S   0  0  0  0  0  0  0  0  0  0  0  0
    0.2449   -0.8666   -2.0082 C   0  0  0  0  0  0  0  0  0  0  0  0
   -0.3028    0.8372   -1.7370 S   0  0  0  0  0  0  0  0  0  0  0  0
   -2.1553    0.3389   -0.8720 P   0  0  0  0  0  0  0  0  0  0  0  0
   -3.2059   -1.0546   -1.7502 S   0  0  0  0  0  0  0  0  0  0  0  0
   -2.9802    1.6906   -0.8452 O   0  0  0  0  0  0  0  0  0  0  0  0
   -2.4502    3.0126   -0.5798 C   0  0  0  0  0  0  0  0  0  0  0  0
   -2.0656    3.2068    0.8722 C   0  0  0  0  0  0  0  0  0  0  0  0
   -1.6747    0.0073    0.6154 O   0  0  0  0  0  0  0  0  0  0  0  0
   -2.5869   -0.5048    1.6091 C   0  0  0  0  0  0  0  0  0  0  0  0
   -2.5314   -2.0184    1.6727 C   0  0  0  0  0  0  0  0  0  0  0  0
    5.3625    0.5570   -0.2541 H   0  0  0  0  0  0  0  0  0  0  0  0
    5.2112    2.3173   -0.0832 H   0  0  0  0  0  0  0  0  0  0  0  0
    4.3887    1.2374    1.0563 H   0  0  0  0  0  0  0  0  0  0  0  0
    3.7284    1.4789   -1.9255 H   0  0  0  0  0  0  0  0  0  0  0  0
    2.7652    2.1446   -0.5736 H   0  0  0  0  0  0  0  0  0  0  0  0
    2.1387   -3.1577    1.4950 H   0  0  0  0  0  0  0  0  0  0  0  0
    3.5110   -2.6832    2.5392 H   0  0  0  0  0  0  0  0  0  0  0  0
    1.3688   -2.7593    3.8335 H   0  0  0  0  0  0  0  0  0  0  0  0
    1.9944   -1.1008    3.7594 H   0  0  0  0  0  0  0  0  0  0  0  0
    0.6564   -1.5844    2.7142 H   0  0  0  0  0  0  0  0  0  0  0  0
   -0.5547   -1.4297   -2.4924 H   0  0  0  0  0  0  0  0  0  0  0  0
    1.1303   -0.8122   -2.6368 H   0  0  0  0  0  0  0  0  0  0  0  0
   -1.5934    3.1801   -1.2378 H   0  0  0  0  0  0  0  0  0  0  0  0
   -3.2716    3.6708   -0.8686 H   0  0  0  0  0  0  0  0  0  0  0  0
   -2.9008    2.9543    1.5208 H   0  0  0  0  0  0  0  0  0  0  0  0
   -1.2108    2.5865    1.1354 H   0  0  0  0  0  0  0  0  0  0  0  0
   -1.7968    4.2469    1.0278 H   0  0  0  0  0  0  0  0  0  0  0  0
   -2.2476   -0.0519    2.5434 H   0  0  0  0  0  0  0  0  0  0  0  0
   -3.5993   -0.1593    1.3771 H   0  0  0  0  0  0  0  0  0  0  0  0
   -3.1579   -2.3641    2.4885 H   0  0  0  0  0  0  0  0  0  0  0  0
   -2.8886   -2.4491    0.7399 H   0  0  0  0  0  0  0  0  0  0  0  0
   -1.5095   -2.3506    1.8356 H   0  0  0  0  0  0  0  0  0  0  0  0
  1  2  1  0  0  0  0
  2  3  1  0  0  0  0
  3  4  2  0  0  0  0
  4  5  2  0  0  0  0
  4  6  2  0  0  0  0
  6  7  1  0  0  0  0
  7  8  1  0  0  0  0
  4  9  1  0  0  0  0
  9 10  1  0  0  0  0
 10 11  1  0  0  0  0
 11 12  1  0  0  0  0
 12 13  2  0  0  0  0
 12 14  2  0  0  0  0
 14 15  1  0  0  0  0
 15 16  1  0  0  0  0
 12 17  1  0  0  0  0
 17 18  1  0  0  0  0
 18 19  1  0  0  0  0
  1 20  1  0  0  0  0
  1 21  1  0  0  0  0
  1 22  1  0  0  0  0
  2 23  1  0  0  0  0
  2 24  1  0  0  0  0
  7 25  1  0  0  0  0
  7 26  1  0  0  0  0
  8 27  1  0  0  0  0
  8 28  1  0  0  0  0
  8 29  1  0  0  0  0
 10 30  1  0  0  0  0
 10 31  1  0  0  0  0
 15 32  1  0  0  0  0
 15 33  1  0  0  0  0
 16 34  1  0  0  0  0
 16 35  1  0  0  0  0
 16 36  1  0  0  0  0
 18 37  1  0  0  0  0
 18 38  1  0  0  0  0
 19 39  1  0  0  0  0
 19 40  1  0  0  0  0
 19 41  1  0  0  0  0
M  END
