 xtb: 6.7.1 (edcfbbe)
          04092505203D

 41 40  0     0  0            999 V2000
    4.3929   -0.9827   -2.3768 C   0  0  0  0  0  0  0  0  0  0  0  0
    3.4728   -2.0532   -1.8267 C   0  0  0  0  0  0  0  0  0  0  0  0
    2.9850   -1.7462   -0.5075 O   0  0  0  0  0  0  0  0  0  0  0  0
    2.2168   -0.4221   -0.0954 P   0  0  0  0  0  0  0  0  0  0  0  0
    3.2723    1.2091    0.2003 S   0  0  0  0  0  0  0  0  0  0  0  0
    1.5106   -0.9845    1.2064 O   0  0  0  0  0  0  0  0  0  0  0  0
    1.6185   -0.3797    2.5126 C   0  0  0  0  0  0  0  0  0  0  0  0
    0.3496   -0.6592    3.2911 C   0  0  0  0  0  0  0  0  0  0  0  0
    0.7139   -0.2792   -1.5881 S   0  0  0  0  0  0  0  0  0  0  0  0
    0.2258    1.4251   -1.2331 C   0  0  0  0  0  0  0  0  0  0  0  0
   -0.4765    1.6238    0.4269 S   0  0  0  0  0  0  0  0  0  0  0  0
   -2.1590    0.3887    0.1280 P   0  0  0  0  0  0  0  0  0  0  0  0
   -3.0502    0.4589   -1.6207 S   0  0  0  0  0  0  0  0  0  0  0  0
   -3.1104    0.7016    1.3651 O   0  0  0  0  0  0  0  0  0  0  0  0
   -4.1307    1.7144    1.3209 C   0  0  0  0  0  0  0  0  0  0  0  0
   -3.5442    3.1095    1.2515 C   0  0  0  0  0  0  0  0  0  0  0  0
   -1.5541   -1.0083    0.5564 O   0  0  0  0  0  0  0  0  0  0  0  0
   -2.1752   -2.2758    0.2491 C   0  0  0  0  0  0  0  0  0  0  0  0
   -1.1518   -3.1822   -0.4061 C   0  0  0  0  0  0  0  0  0  0  0  0
    3.8421   -0.0563   -2.5331 H   0  0  0  0  0  0  0  0  0  0  0  0
    5.2050   -0.7868   -1.6806 H   0  0  0  0  0  0  0  0  0  0  0  0
    4.8040   -1.3137   -3.3251 H   0  0  0  0  0  0  0  0  0  0  0  0
    3.9990   -2.9996   -1.6896 H   0  0  0  0  0  0  0  0  0  0  0  0
    2.6124   -2.2005   -2.4856 H   0  0  0  0  0  0  0  0  0  0  0  0
    2.4866   -0.8258    3.0042 H   0  0  0  0  0  0  0  0  0  0  0  0
    1.7903    0.6959    2.3979 H   0  0  0  0  0  0  0  0  0  0  0  0
    0.4537   -0.2489    4.2903 H   0  0  0  0  0  0  0  0  0  0  0  0
   -0.5068   -0.1990    2.8045 H   0  0  0  0  0  0  0  0  0  0  0  0
    0.1819   -1.7304    3.3551 H   0  0  0  0  0  0  0  0  0  0  0  0
   -0.5162    1.6986   -1.9825 H   0  0  0  0  0  0  0  0  0  0  0  0
    1.0998    2.0751   -1.2760 H   0  0  0  0  0  0  0  0  0  0  0  0
   -4.7697    1.5218    0.4533 H   0  0  0  0  0  0  0  0  0  0  0  0
   -4.6948    1.5580    2.2412 H   0  0  0  0  0  0  0  0  0  0  0  0
   -2.8281    3.2599    2.0556 H   0  0  0  0  0  0  0  0  0  0  0  0
   -3.0359    3.2528    0.2988 H   0  0  0  0  0  0  0  0  0  0  0  0
   -4.3423    3.8398    1.3373 H   0  0  0  0  0  0  0  0  0  0  0  0
   -2.5236   -2.6853    1.1993 H   0  0  0  0  0  0  0  0  0  0  0  0
   -3.0314   -2.1051   -0.4117 H   0  0  0  0  0  0  0  0  0  0  0  0
   -0.2520   -3.2234    0.2032 H   0  0  0  0  0  0  0  0  0  0  0  0
   -1.5679   -4.1794   -0.5061 H   0  0  0  0  0  0  0  0  0  0  0  0
   -0.8883   -2.8027   -1.3906 H   0  0  0  0  0  0  0  0  0  0  0  0
  1  2  1  0  0  0  0
  2  3  1  0  0  0  0
  3  4  2  0  0  0  0
  4  5  2  0  0  0  0
  4  6  2  0  0  0  0
  6  7  1  0  0  0  0
  7  8  1  0  0  0  0
  4  9  1  0  0  0  0
  9 10  1  0  0  0  0
 10 11  1  0  0  0  0
 11 12  1  0  0  0  0
 12 13  2  0  0  0  0
 12 14  2  0  0  0  0
 14 15  1  0  0  0  0
 15 16  1  0  0  0  0
 12 17  2  0  0  0  0
 17 18  1  0  0  0  0
 18 19  1  0  0  0  0
  1 20  1  0  0  0  0
  1 21  1  0  0  0  0
  1 22  1  0  0  0  0
  2 23  1  0  0  0  0
  2 24  1  0  0  0  0
  7 25  1  0  0  0  0
  7 26  1  0  0  0  0
  8 27  1  0  0  0  0
  8 28  1  0  0  0  0
  8 29  1  0  0  0  0
 10 30  1  0  0  0  0
 10 31  1  0  0  0  0
 15 32  1  0  0  0  0
 15 33  1  0  0  0  0
 16 34  1  0  0  0  0
 16 35  1  0  0  0  0
 16 36  1  0  0  0  0
 18 37  1  0  0  0  0
 18 38  1  0  0  0  0
 19 39  1  0  0  0  0
 19 40  1  0  0  0  0
 19 41  1  0  0  0  0
M  END
