 xtb: 6.7.1 (edcfbbe)
          04092507313D

 38 37  0     0  0            999 V2000
    4.8008   -3.4296    0.2699 C   0  0  0  0  0  0  0  0  0  0  0  0
    4.5071   -1.9956   -0.1278 C   0  0  0  0  0  0  0  0  0  0  0  0
    3.1959   -1.9523   -0.7291 O   0  0  0  0  0  0  0  0  0  0  0  0
    2.4706   -0.8679   -0.6014 C   0  0  0  0  0  0  0  0  0  0  0  0
    2.8353    0.1470   -0.0375 O   0  0  0  0  0  0  0  0  0  0  0  0
    1.0995   -1.0316   -1.2125 C   0  0  0  0  0  0  0  0  0  0  0  0
    0.4432    0.3295   -1.4095 C   0  0  0  0  0  0  0  0  0  0  0  0
    0.7800    0.8193   -2.3242 H   0  0  0  0  0  0  0  0  0  0  0  0
    0.6774    1.2570   -0.2318 C   0  0  0  0  0  0  0  0  0  0  0  0
    0.2478    1.0085    0.8793 O   0  0  0  0  0  0  0  0  0  0  0  0
    1.2501    2.3760   -0.5907 O   0  0  0  0  0  0  0  0  0  0  0  0
    1.4989    3.3702    0.4258 C   0  0  0  0  0  0  0  0  0  0  0  0
    0.2370    4.1523    0.7533 C   0  0  0  0  0  0  0  0  0  0  0  0
   -1.3662    0.1943   -1.5493 S   0  0  0  0  0  0  0  0  0  0  0  0
   -1.9901   -0.2761    0.4435 P   0  0  0  0  0  0  0  0  0  0  0  0
   -1.0956   -1.6751    1.4878 S   0  0  0  0  0  0  0  0  0  0  0  0
   -2.3289    1.0694    1.2095 O   0  0  0  0  0  0  0  0  0  0  0  0
   -3.2744    2.0239    0.6878 C   0  0  0  0  0  0  0  0  0  0  0  0
   -3.4897   -0.7198    0.0694 O   0  0  0  0  0  0  0  0  0  0  0  0
   -3.7685   -1.9770   -0.5525 C   0  0  0  0  0  0  0  0  0  0  0  0
    4.7455   -4.0738   -0.6022 H   0  0  0  0  0  0  0  0  0  0  0  0
    5.7965   -3.4857    0.6969 H   0  0  0  0  0  0  0  0  0  0  0  0
    4.0769   -3.7713    1.0045 H   0  0  0  0  0  0  0  0  0  0  0  0
    5.2208   -1.6343   -0.8735 H   0  0  0  0  0  0  0  0  0  0  0  0
    4.5180   -1.3194    0.7322 H   0  0  0  0  0  0  0  0  0  0  0  0
    0.5246   -1.6312   -0.4951 H   0  0  0  0  0  0  0  0  0  0  0  0
    1.1584   -1.5875   -2.1467 H   0  0  0  0  0  0  0  0  0  0  0  0
    1.8876    2.8608    1.3118 H   0  0  0  0  0  0  0  0  0  0  0  0
    2.2664    4.0070   -0.0131 H   0  0  0  0  0  0  0  0  0  0  0  0
   -0.5012    3.4932    1.2054 H   0  0  0  0  0  0  0  0  0  0  0  0
    0.4800    4.9414    1.4570 H   0  0  0  0  0  0  0  0  0  0  0  0
   -0.1774    4.5904   -0.1506 H   0  0  0  0  0  0  0  0  0  0  0  0
   -3.2021    2.8850    1.3477 H   0  0  0  0  0  0  0  0  0  0  0  0
   -4.2766    1.6006    0.7120 H   0  0  0  0  0  0  0  0  0  0  0  0
   -3.0106    2.2956   -0.3350 H   0  0  0  0  0  0  0  0  0  0  0  0
   -3.2031   -2.7705   -0.0606 H   0  0  0  0  0  0  0  0  0  0  0  0
   -3.5085   -1.9315   -1.6094 H   0  0  0  0  0  0  0  0  0  0  0  0
   -4.8361   -2.1371   -0.4257 H   0  0  0  0  0  0  0  0  0  0  0  0
  1  2  1  0  0  0  0
  2  3  1  0  0  0  0
  3  4  4  0  0  0  0
  4  5  2  0  0  0  0
  4  6  1  0  0  0  0
  6  7  1  0  0  0  0
  7  8  1  0  0  0  0
  7  9  1  0  0  0  0
  9 10  2  0  0  0  0
  9 11  4  0  0  0  0
 11 12  1  0  0  0  0
 12 13  1  0  0  0  0
  7 14  1  0  0  0  0
 14 15  1  0  0  0  0
 15 16  2  0  0  0  0
 15 17  2  0  0  0  0
 17 18  1  0  0  0  0
 15 19  1  0  0  0  0
 19 20  1  0  0  0  0
  1 21  1  0  0  0  0
  1 22  1  0  0  0  0
  1 23  1  0  0  0  0
  2 24  1  0  0  0  0
  2 25  1  0  0  0  0
  6 26  1  0  0  0  0
  6 27  1  0  0  0  0
 12 28  1  0  0  0  0
 12 29  1  0  0  0  0
 13 30  1  0  0  0  0
 13 31  1  0  0  0  0
 13 32  1  0  0  0  0
 18 33  1  0  0  0  0
 18 34  1  0  0  0  0
 18 35  1  0  0  0  0
 20 36  1  0  0  0  0
 20 37  1  0  0  0  0
 20 38  1  0  0  0  0
M  END
