 xtb: 6.7.1 (edcfbbe)
          04092505213D

 41 40  0     0  0            999 V2000
    1.5895    3.4747    1.0710 C   0  0  0  0  0  0  0  0  0  0  0  0
    2.0843    2.0964    1.4563 C   0  0  0  0  0  0  0  0  0  0  0  0
    1.7194    1.1692    0.4044 O   0  0  0  0  0  0  0  0  0  0  0  0
    1.6776   -0.3793    0.7178 P   0  0  0  0  0  0  0  0  0  0  0  0
    0.5415   -0.9628    2.2137 S   0  0  0  0  0  0  0  0  0  0  0  0
    3.2282   -0.6489    0.9892 O   0  0  0  0  0  0  0  0  0  0  0  0
    3.7068   -1.9237    1.4553 C   0  0  0  0  0  0  0  0  0  0  0  0
    5.0679   -1.7129    2.0876 C   0  0  0  0  0  0  0  0  0  0  0  0
    1.3424   -1.2555   -1.1669 S   0  0  0  0  0  0  0  0  0  0  0  0
   -0.1946   -2.1760   -0.8442 C   0  0  0  0  0  0  0  0  0  0  0  0
   -1.6269   -1.6401   -1.8305 S   0  0  0  0  0  0  0  0  0  0  0  0
   -2.1239    0.1563   -0.8505 P   0  0  0  0  0  0  0  0  0  0  0  0
   -3.6950    1.1315   -1.4908 S   0  0  0  0  0  0  0  0  0  0  0  0
   -0.7698    1.0099   -0.8278 O   0  0  0  0  0  0  0  0  0  0  0  0
   -0.4906    1.9872   -1.8462 C   0  0  0  0  0  0  0  0  0  0  0  0
   -0.3263    1.3637   -3.2176 C   0  0  0  0  0  0  0  0  0  0  0  0
   -2.1982   -0.3852    0.6375 O   0  0  0  0  0  0  0  0  0  0  0  0
   -2.9044    0.3213    1.6769 C   0  0  0  0  0  0  0  0  0  0  0  0
   -2.2560    1.6499    2.0011 C   0  0  0  0  0  0  0  0  0  0  0  0
    2.0480    3.7888    0.1377 H   0  0  0  0  0  0  0  0  0  0  0  0
    0.5092    3.4674    0.9521 H   0  0  0  0  0  0  0  0  0  0  0  0
    1.8564    4.1773    1.8540 H   0  0  0  0  0  0  0  0  0  0  0  0
    1.6313    1.7571    2.3945 H   0  0  0  0  0  0  0  0  0  0  0  0
    3.1717    2.0745    1.5584 H   0  0  0  0  0  0  0  0  0  0  0  0
    2.9883   -2.3237    2.1793 H   0  0  0  0  0  0  0  0  0  0  0  0
    3.7666   -2.5984    0.5972 H   0  0  0  0  0  0  0  0  0  0  0  0
    4.9853   -1.0502    2.9446 H   0  0  0  0  0  0  0  0  0  0  0  0
    5.4608   -2.6704    2.4134 H   0  0  0  0  0  0  0  0  0  0  0  0
    5.7476   -1.2719    1.3643 H   0  0  0  0  0  0  0  0  0  0  0  0
   -0.4326   -2.1046    0.2194 H   0  0  0  0  0  0  0  0  0  0  0  0
   -0.0262   -3.2065   -1.1453 H   0  0  0  0  0  0  0  0  0  0  0  0
   -1.3101    2.7128   -1.8535 H   0  0  0  0  0  0  0  0  0  0  0  0
    0.4316    2.4598   -1.5072 H   0  0  0  0  0  0  0  0  0  0  0  0
    0.4588    0.6111   -3.2064 H   0  0  0  0  0  0  0  0  0  0  0  0
   -1.2610    0.8950   -3.5268 H   0  0  0  0  0  0  0  0  0  0  0  0
   -0.0698    2.1393   -3.9321 H   0  0  0  0  0  0  0  0  0  0  0  0
   -3.9397    0.4634    1.3522 H   0  0  0  0  0  0  0  0  0  0  0  0
   -2.8647   -0.3635    2.5254 H   0  0  0  0  0  0  0  0  0  0  0  0
   -2.7653    2.1031    2.8455 H   0  0  0  0  0  0  0  0  0  0  0  0
   -1.2084    1.4981    2.2509 H   0  0  0  0  0  0  0  0  0  0  0  0
   -2.3269    2.3156    1.1413 H   0  0  0  0  0  0  0  0  0  0  0  0
  1  2  1  0  0  0  0
  2  3  1  0  0  0  0
  3  4  2  0  0  0  0
  4  5  2  0  0  0  0
  4  6  1  0  0  0  0
  6  7  1  0  0  0  0
  7  8  1  0  0  0  0
  4  9  1  0  0  0  0
  9 10  1  0  0  0  0
 10 11  1  0  0  0  0
 11 12  1  0  0  0  0
 12 13  2  0  0  0  0
 12 14  1  0  0  0  0
 14 15  1  0  0  0  0
 15 16  1  0  0  0  0
 12 17  2  0  0  0  0
 17 18  1  0  0  0  0
 18 19  1  0  0  0  0
  1 20  1  0  0  0  0
  1 21  1  0  0  0  0
  1 22  1  0  0  0  0
  2 23  1  0  0  0  0
  2 24  1  0  0  0  0
  7 25  1  0  0  0  0
  7 26  1  0  0  0  0
  8 27  1  0  0  0  0
  8 28  1  0  0  0  0
  8 29  1  0  0  0  0
 10 30  1  0  0  0  0
 10 31  1  0  0  0  0
 15 32  1  0  0  0  0
 15 33  1  0  0  0  0
 16 34  1  0  0  0  0
 16 35  1  0  0  0  0
 16 36  1  0  0  0  0
 18 37  1  0  0  0  0
 18 38  1  0  0  0  0
 19 39  1  0  0  0  0
 19 40  1  0  0  0  0
 19 41  1  0  0  0  0
M  END
