 xtb: 6.7.1 (edcfbbe)
          04092505213D

 41 40  0     0  0            999 V2000
    1.5396    1.8451   -1.9075 C   0  0  0  0  0  0  0  0  0  0  0  0
    2.3861    0.5953   -2.0349 C   0  0  0  0  0  0  0  0  0  0  0  0
    2.1422   -0.3377   -0.9725 O   0  0  0  0  0  0  0  0  0  0  0  0
    2.4692    0.0148    0.5531 P   0  0  0  0  0  0  0  0  0  0  0  0
    4.0244    1.1861    0.7723 S   0  0  0  0  0  0  0  0  0  0  0  0
    2.5385   -1.4390    1.1875 O   0  0  0  0  0  0  0  0  0  0  0  0
    3.6621   -2.3164    0.9366 C   0  0  0  0  0  0  0  0  0  0  0  0
    4.6769   -2.2190    2.0580 C   0  0  0  0  0  0  0  0  0  0  0  0
    0.6687    0.6218    1.4399 S   0  0  0  0  0  0  0  0  0  0  0  0
   -0.2911   -0.9324    1.2212 C   0  0  0  0  0  0  0  0  0  0  0  0
   -2.0549   -0.6018    1.2582 S   0  0  0  0  0  0  0  0  0  0  0  0
   -2.2144    0.1053   -0.7512 P   0  0  0  0  0  0  0  0  0  0  0  0
   -1.1389   -0.8591   -2.0733 S   0  0  0  0  0  0  0  0  0  0  0  0
   -1.8338    1.6351   -0.7186 O   0  0  0  0  0  0  0  0  0  0  0  0
   -2.1666    2.5970    0.3117 C   0  0  0  0  0  0  0  0  0  0  0  0
   -3.6454    2.6391    0.6268 C   0  0  0  0  0  0  0  0  0  0  0  0
   -3.7736    0.1272   -1.0491 O   0  0  0  0  0  0  0  0  0  0  0  0
   -4.4806   -1.0120   -1.5681 C   0  0  0  0  0  0  0  0  0  0  0  0
   -4.5279   -2.1605   -0.5811 C   0  0  0  0  0  0  0  0  0  0  0  0
    1.7844    2.3643   -0.9802 H   0  0  0  0  0  0  0  0  0  0  0  0
    1.7420    2.5035   -2.7459 H   0  0  0  0  0  0  0  0  0  0  0  0
    0.4819    1.5907   -1.9014 H   0  0  0  0  0  0  0  0  0  0  0  0
    3.4495    0.8549   -2.0259 H   0  0  0  0  0  0  0  0  0  0  0  0
    2.1398    0.0344   -2.9378 H   0  0  0  0  0  0  0  0  0  0  0  0
    3.2227   -3.3139    0.8802 H   0  0  0  0  0  0  0  0  0  0  0  0
    4.1106   -2.0606   -0.0271 H   0  0  0  0  0  0  0  0  0  0  0  0
    5.0984   -1.2168    2.0986 H   0  0  0  0  0  0  0  0  0  0  0  0
    4.2026   -2.4376    3.0107 H   0  0  0  0  0  0  0  0  0  0  0  0
    5.4753   -2.9323    1.8802 H   0  0  0  0  0  0  0  0  0  0  0  0
   -0.0665   -1.6002    2.0478 H   0  0  0  0  0  0  0  0  0  0  0  0
   -0.0249   -1.3716    0.2575 H   0  0  0  0  0  0  0  0  0  0  0  0
   -1.5785    2.3546    1.2021 H   0  0  0  0  0  0  0  0  0  0  0  0
   -1.8163    3.5404   -0.1096 H   0  0  0  0  0  0  0  0  0  0  0  0
   -3.9635    1.7014    1.0779 H   0  0  0  0  0  0  0  0  0  0  0  0
   -3.8322    3.4483    1.3261 H   0  0  0  0  0  0  0  0  0  0  0  0
   -4.2195    2.8073   -0.2805 H   0  0  0  0  0  0  0  0  0  0  0  0
   -5.4773   -0.6229   -1.7808 H   0  0  0  0  0  0  0  0  0  0  0  0
   -3.9981   -1.3248   -2.4995 H   0  0  0  0  0  0  0  0  0  0  0  0
   -3.5319   -2.5788   -0.4463 H   0  0  0  0  0  0  0  0  0  0  0  0
   -4.8978   -1.8181    0.3818 H   0  0  0  0  0  0  0  0  0  0  0  0
   -5.1843   -2.9349   -0.9651 H   0  0  0  0  0  0  0  0  0  0  0  0
  1  2  1  0  0  0  0
  2  3  1  0  0  0  0
  3  4  1  0  0  0  0
  4  5  2  0  0  0  0
  4  6  2  0  0  0  0
  6  7  1  0  0  0  0
  7  8  1  0  0  0  0
  4  9  1  0  0  0  0
  9 10  1  0  0  0  0
 10 11  1  0  0  0  0
 11 12  1  0  0  0  0
 12 13  2  0  0  0  0
 12 14  2  0  0  0  0
 14 15  1  0  0  0  0
 15 16  1  0  0  0  0
 12 17  2  0  0  0  0
 17 18  1  0  0  0  0
 18 19  1  0  0  0  0
  1 20  1  0  0  0  0
  1 21  1  0  0  0  0
  1 22  1  0  0  0  0
  2 23  1  0  0  0  0
  2 24  1  0  0  0  0
  7 25  1  0  0  0  0
  7 26  1  0  0  0  0
  8 27  1  0  0  0  0
  8 28  1  0  0  0  0
  8 29  1  0  0  0  0
 10 30  1  0  0  0  0
 10 31  1  0  0  0  0
 15 32  1  0  0  0  0
 15 33  1  0  0  0  0
 16 34  1  0  0  0  0
 16 35  1  0  0  0  0
 16 36  1  0  0  0  0
 18 37  1  0  0  0  0
 18 38  1  0  0  0  0
 19 39  1  0  0  0  0
 19 40  1  0  0  0  0
 19 41  1  0  0  0  0
M  END
