 xtb: 6.7.1 (edcfbbe)
          04032520443D

 10  9  0     0  0            999 V2000
    1.8564    0.1054    0.2416 C   0  0  0  0  0  0  0  0  0  0  0  0
    0.7076    0.1191   -0.4073 C   0  0  0  0  0  0  0  0  0  0  0  0
   -0.5424   -0.5588    0.0708 C   0  0  0  0  0  0  0  0  0  0  0  0
   -1.6651    0.3032    0.1073 O   0  0  0  0  0  0  0  0  0  0  0  0
    2.7334    0.5946   -0.1453 H   0  0  0  0  0  0  0  0  0  0  0  0
    1.9663   -0.4038    1.1841 H   0  0  0  0  0  0  0  0  0  0  0  0
    0.6157    0.6394   -1.3520 H   0  0  0  0  0  0  0  0  0  0  0  0
   -0.4171   -0.9212    1.0932 H   0  0  0  0  0  0  0  0  0  0  0  0
   -0.7587   -1.4208   -0.5801 H   0  0  0  0  0  0  0  0  0  0  0  0
   -1.7991    0.6838   -0.7721 H   0  0  0  0  0  0  0  0  0  0  0  0
  1  2  2  0  0  0  0
  2  3  1  0  0  0  0
  3  4  1  0  0  0  0
  1  5  1  0  0  0  0
  1  6  1  0  0  0  0
  2  7  1  0  0  0  0
  3  8  1  0  0  0  0
  3  9  1  0  0  0  0
  4 10  1  0  0  0  0
M  END
