 xtb: 6.7.1 (edcfbbe)
          04092505203D

 41 40  0     0  0            999 V2000
    3.0208    0.8920   -2.2455 C   0  0  0  0  0  0  0  0  0  0  0  0
    2.1989   -0.3789   -2.2744 C   0  0  0  0  0  0  0  0  0  0  0  0
    1.3413   -0.5074   -1.1206 O   0  0  0  0  0  0  0  0  0  0  0  0
    1.8331   -0.5027    0.3816 P   0  0  0  0  0  0  0  0  0  0  0  0
    2.4039    1.1581    1.2674 S   0  0  0  0  0  0  0  0  0  0  0  0
    2.9681   -1.6164    0.3242 O   0  0  0  0  0  0  0  0  0  0  0  0
    3.8509   -1.8760    1.4330 C   0  0  0  0  0  0  0  0  0  0  0  0
    5.1596   -2.4071    0.8831 C   0  0  0  0  0  0  0  0  0  0  0  0
    0.2409   -1.4880    1.3366 S   0  0  0  0  0  0  0  0  0  0  0  0
   -0.6664   -0.0755    2.0489 C   0  0  0  0  0  0  0  0  0  0  0  0
   -2.3460    0.0697    1.4114 S   0  0  0  0  0  0  0  0  0  0  0  0
   -1.8827    0.7409   -0.5565 P   0  0  0  0  0  0  0  0  0  0  0  0
   -0.4566    2.0768   -0.6761 S   0  0  0  0  0  0  0  0  0  0  0  0
   -3.3125    1.1434   -1.1214 O   0  0  0  0  0  0  0  0  0  0  0  0
   -4.2817    1.9601   -0.4368 C   0  0  0  0  0  0  0  0  0  0  0  0
   -3.7279    3.3069   -0.0230 C   0  0  0  0  0  0  0  0  0  0  0  0
   -1.5346   -0.4984   -1.4668 O   0  0  0  0  0  0  0  0  0  0  0  0
   -2.4408   -1.5860   -1.7879 C   0  0  0  0  0  0  0  0  0  0  0  0
   -2.2085   -2.7835   -0.8885 C   0  0  0  0  0  0  0  0  0  0  0  0
    2.3694    1.7550   -2.1152 H   0  0  0  0  0  0  0  0  0  0  0  0
    3.7250    0.8667   -1.4145 H   0  0  0  0  0  0  0  0  0  0  0  0
    3.5698    0.9922   -3.1764 H   0  0  0  0  0  0  0  0  0  0  0  0
    2.8391   -1.2629   -2.3207 H   0  0  0  0  0  0  0  0  0  0  0  0
    1.4953   -0.3782   -3.1091 H   0  0  0  0  0  0  0  0  0  0  0  0
    3.9975   -0.9429    1.9878 H   0  0  0  0  0  0  0  0  0  0  0  0
    3.3639   -2.6081    2.0815 H   0  0  0  0  0  0  0  0  0  0  0  0
    4.9803   -3.3054    0.2995 H   0  0  0  0  0  0  0  0  0  0  0  0
    5.6315   -1.6615    0.2488 H   0  0  0  0  0  0  0  0  0  0  0  0
    5.8217   -2.6414    1.7101 H   0  0  0  0  0  0  0  0  0  0  0  0
   -0.1041    0.8396    1.8401 H   0  0  0  0  0  0  0  0  0  0  0  0
   -0.7626   -0.2418    3.1186 H   0  0  0  0  0  0  0  0  0  0  0  0
   -5.0849    2.0677   -1.1680 H   0  0  0  0  0  0  0  0  0  0  0  0
   -4.6407    1.4051    0.4341 H   0  0  0  0  0  0  0  0  0  0  0  0
   -4.5219    3.9048    0.4125 H   0  0  0  0  0  0  0  0  0  0  0  0
   -2.9354    3.1789    0.7129 H   0  0  0  0  0  0  0  0  0  0  0  0
   -3.3132    3.8278   -0.8828 H   0  0  0  0  0  0  0  0  0  0  0  0
   -3.4678   -1.2244   -1.7162 H   0  0  0  0  0  0  0  0  0  0  0  0
   -2.2069   -1.8223   -2.8273 H   0  0  0  0  0  0  0  0  0  0  0  0
   -1.1614   -3.0746   -0.9137 H   0  0  0  0  0  0  0  0  0  0  0  0
   -2.4793   -2.5582    0.1401 H   0  0  0  0  0  0  0  0  0  0  0  0
   -2.8175   -3.6096   -1.2418 H   0  0  0  0  0  0  0  0  0  0  0  0
  1  2  1  0  0  0  0
  2  3  1  0  0  0  0
  3  4  2  0  0  0  0
  4  5  2  0  0  0  0
  4  6  2  0  0  0  0
  6  7  1  0  0  0  0
  7  8  1  0  0  0  0
  4  9  1  0  0  0  0
  9 10  1  0  0  0  0
 10 11  1  0  0  0  0
 11 12  1  0  0  0  0
 12 13  2  0  0  0  0
 12 14  2  0  0  0  0
 14 15  1  0  0  0  0
 15 16  1  0  0  0  0
 12 17  2  0  0  0  0
 17 18  1  0  0  0  0
 18 19  1  0  0  0  0
  1 20  1  0  0  0  0
  1 21  1  0  0  0  0
  1 22  1  0  0  0  0
  2 23  1  0  0  0  0
  2 24  1  0  0  0  0
  7 25  1  0  0  0  0
  7 26  1  0  0  0  0
  8 27  1  0  0  0  0
  8 28  1  0  0  0  0
  8 29  1  0  0  0  0
 10 30  1  0  0  0  0
 10 31  1  0  0  0  0
 15 32  1  0  0  0  0
 15 33  1  0  0  0  0
 16 34  1  0  0  0  0
 16 35  1  0  0  0  0
 16 36  1  0  0  0  0
 18 37  1  0  0  0  0
 18 38  1  0  0  0  0
 19 39  1  0  0  0  0
 19 40  1  0  0  0  0
 19 41  1  0  0  0  0
M  END
