 xtb: 6.7.1 (edcfbbe)
          04092507313D

 38 37  0     0  0            999 V2000
    1.2386   -3.5793   -2.3160 C   0  0  0  0  0  0  0  0  0  0  0  0
    2.5098   -2.7457   -2.3331 C   0  0  0  0  0  0  0  0  0  0  0  0
    2.3517   -1.5822   -1.4997 O   0  0  0  0  0  0  0  0  0  0  0  0
    2.7770   -1.6344   -0.2527 C   0  0  0  0  0  0  0  0  0  0  0  0
    3.3650   -2.5712    0.2377 O   0  0  0  0  0  0  0  0  0  0  0  0
    2.4700   -0.3541    0.5050 C   0  0  0  0  0  0  0  0  0  0  0  0
    1.0813    0.1797    0.1737 C   0  0  0  0  0  0  0  0  0  0  0  0
    0.9936    0.3607   -0.9029 H   0  0  0  0  0  0  0  0  0  0  0  0
    0.7737    1.4803    0.8929 C   0  0  0  0  0  0  0  0  0  0  0  0
   -0.2391    1.6435    1.5422 O   0  0  0  0  0  0  0  0  0  0  0  0
    1.7140    2.3677    0.7158 O   0  0  0  0  0  0  0  0  0  0  0  0
    1.5098    3.6981    1.2400 C   0  0  0  0  0  0  0  0  0  0  0  0
    0.7876    4.5602    0.2181 C   0  0  0  0  0  0  0  0  0  0  0  0
   -0.1998   -1.0386    0.6371 S   0  0  0  0  0  0  0  0  0  0  0  0
   -1.9143    0.1077    0.1152 P   0  0  0  0  0  0  0  0  0  0  0  0
   -1.6741    1.5017   -1.2359 S   0  0  0  0  0  0  0  0  0  0  0  0
   -2.9018   -1.0637   -0.3765 O   0  0  0  0  0  0  0  0  0  0  0  0
   -2.6564   -1.7879   -1.5841 C   0  0  0  0  0  0  0  0  0  0  0  0
   -2.7143    0.5728    1.3935 O   0  0  0  0  0  0  0  0  0  0  0  0
   -2.9815   -0.3013    2.5059 C   0  0  0  0  0  0  0  0  0  0  0  0
    1.3648   -4.4424   -2.9609 H   0  0  0  0  0  0  0  0  0  0  0  0
    1.0302   -3.9182   -1.3035 H   0  0  0  0  0  0  0  0  0  0  0  0
    0.3996   -2.9867   -2.6713 H   0  0  0  0  0  0  0  0  0  0  0  0
    2.7140   -2.3527   -3.3295 H   0  0  0  0  0  0  0  0  0  0  0  0
    3.3627   -3.3238   -1.9674 H   0  0  0  0  0  0  0  0  0  0  0  0
    3.2083    0.3997    0.2227 H   0  0  0  0  0  0  0  0  0  0  0  0
    2.5661   -0.5661    1.5704 H   0  0  0  0  0  0  0  0  0  0  0  0
    0.9343    3.6246    2.1665 H   0  0  0  0  0  0  0  0  0  0  0  0
    2.5151    4.0690    1.4390 H   0  0  0  0  0  0  0  0  0  0  0  0
    0.6573    5.5604    0.6173 H   0  0  0  0  0  0  0  0  0  0  0  0
    1.3602    4.6110   -0.7035 H   0  0  0  0  0  0  0  0  0  0  0  0
   -0.1911    4.1383   -0.0055 H   0  0  0  0  0  0  0  0  0  0  0  0
   -1.8376   -2.4914   -1.4318 H   0  0  0  0  0  0  0  0  0  0  0  0
   -2.4133   -1.0965   -2.3929 H   0  0  0  0  0  0  0  0  0  0  0  0
   -3.5800   -2.3175   -1.8033 H   0  0  0  0  0  0  0  0  0  0  0  0
   -3.5380   -1.1747    2.1701 H   0  0  0  0  0  0  0  0  0  0  0  0
   -3.5718    0.2952    3.1964 H   0  0  0  0  0  0  0  0  0  0  0  0
   -2.0427   -0.6053    2.9687 H   0  0  0  0  0  0  0  0  0  0  0  0
  1  2  1  0  0  0  0
  2  3  1  0  0  0  0
  3  4  1  0  0  0  0
  4  5  2  0  0  0  0
  4  6  1  0  0  0  0
  6  7  1  0  0  0  0
  7  8  1  0  0  0  0
  7  9  1  0  0  0  0
  9 10  2  0  0  0  0
  9 11  4  0  0  0  0
 11 12  1  0  0  0  0
 12 13  1  0  0  0  0
  7 14  1  0  0  0  0
 14 15  1  0  0  0  0
 15 16  2  0  0  0  0
 15 17  1  0  0  0  0
 17 18  1  0  0  0  0
 15 19  2  0  0  0  0
 19 20  1  0  0  0  0
  1 21  1  0  0  0  0
  1 22  1  0  0  0  0
  1 23  1  0  0  0  0
  2 24  1  0  0  0  0
  2 25  1  0  0  0  0
  6 26  1  0  0  0  0
  6 27  1  0  0  0  0
 12 28  1  0  0  0  0
 12 29  1  0  0  0  0
 13 30  1  0  0  0  0
 13 31  1  0  0  0  0
 13 32  1  0  0  0  0
 18 33  1  0  0  0  0
 18 34  1  0  0  0  0
 18 35  1  0  0  0  0
 20 36  1  0  0  0  0
 20 37  1  0  0  0  0
 20 38  1  0  0  0  0
M  END
