 xtb: 6.7.1 (edcfbbe)
          04092507313D

 38 37  0     0  0            999 V2000
    2.1852   -3.7522   -2.1137 C   0  0  0  0  0  0  0  0  0  0  0  0
    2.9086   -3.3756   -0.8303 C   0  0  0  0  0  0  0  0  0  0  0  0
    2.9049   -1.9455   -0.6503 O   0  0  0  0  0  0  0  0  0  0  0  0
    1.8558   -1.3865   -0.0962 C   0  0  0  0  0  0  0  0  0  0  0  0
    0.8982   -1.9922    0.3413 O   0  0  0  0  0  0  0  0  0  0  0  0
    1.9594    0.1222   -0.0720 C   0  0  0  0  0  0  0  0  0  0  0  0
    0.9921    0.7489   -1.0967 C   0  0  0  0  0  0  0  0  0  0  0  0
    1.5031    0.9319   -2.0430 H   0  0  0  0  0  0  0  0  0  0  0  0
    0.4368    2.0472   -0.5353 C   0  0  0  0  0  0  0  0  0  0  0  0
   -0.7396    2.1878   -0.2716 O   0  0  0  0  0  0  0  0  0  0  0  0
    1.3671    2.9435   -0.3613 O   0  0  0  0  0  0  0  0  0  0  0  0
    1.0105    4.1815    0.2950 C   0  0  0  0  0  0  0  0  0  0  0  0
    1.0847    4.0195    1.8044 C   0  0  0  0  0  0  0  0  0  0  0  0
   -0.4426   -0.2897   -1.5521 S   0  0  0  0  0  0  0  0  0  0  0  0
   -1.5071   -0.3216    0.2827 P   0  0  0  0  0  0  0  0  0  0  0  0
   -0.8082    0.2399    2.0314 S   0  0  0  0  0  0  0  0  0  0  0  0
   -2.9266    0.3065   -0.0974 O   0  0  0  0  0  0  0  0  0  0  0  0
   -3.4227    1.5892    0.2793 C   0  0  0  0  0  0  0  0  0  0  0  0
   -2.0196   -1.8333    0.2383 O   0  0  0  0  0  0  0  0  0  0  0  0
   -1.7591   -2.8337    1.2217 C   0  0  0  0  0  0  0  0  0  0  0  0
    2.2237   -4.8282   -2.2470 H   0  0  0  0  0  0  0  0  0  0  0  0
    1.1442   -3.4382   -2.0639 H   0  0  0  0  0  0  0  0  0  0  0  0
    2.6548   -3.2670   -2.9645 H   0  0  0  0  0  0  0  0  0  0  0  0
    3.9642   -3.6427   -0.8725 H   0  0  0  0  0  0  0  0  0  0  0  0
    2.4313   -3.8389    0.0377 H   0  0  0  0  0  0  0  0  0  0  0  0
    2.9794    0.4267   -0.2965 H   0  0  0  0  0  0  0  0  0  0  0  0
    1.6837    0.4435    0.9355 H   0  0  0  0  0  0  0  0  0  0  0  0
    1.7444    4.9001   -0.0683 H   0  0  0  0  0  0  0  0  0  0  0  0
    0.0029    4.4662   -0.0180 H   0  0  0  0  0  0  0  0  0  0  0  0
    0.3912    3.2483    2.1368 H   0  0  0  0  0  0  0  0  0  0  0  0
    2.0896    3.7364    2.1044 H   0  0  0  0  0  0  0  0  0  0  0  0
    0.8195    4.9573    2.2806 H   0  0  0  0  0  0  0  0  0  0  0  0
   -2.9527    1.9185    1.2071 H   0  0  0  0  0  0  0  0  0  0  0  0
   -4.4945    1.4646    0.4177 H   0  0  0  0  0  0  0  0  0  0  0  0
   -3.2128    2.3077   -0.5108 H   0  0  0  0  0  0  0  0  0  0  0  0
   -1.0000   -3.5128    0.8384 H   0  0  0  0  0  0  0  0  0  0  0  0
   -2.6989   -3.3538    1.3936 H   0  0  0  0  0  0  0  0  0  0  0  0
   -1.4011   -2.3763    2.1461 H   0  0  0  0  0  0  0  0  0  0  0  0
  1  2  1  0  0  0  0
  2  3  1  0  0  0  0
  3  4  4  0  0  0  0
  4  5  2  0  0  0  0
  4  6  1  0  0  0  0
  6  7  1  0  0  0  0
  7  8  1  0  0  0  0
  7  9  1  0  0  0  0
  9 10  2  0  0  0  0
  9 11  4  0  0  0  0
 11 12  1  0  0  0  0
 12 13  1  0  0  0  0
  7 14  1  0  0  0  0
 14 15  1  0  0  0  0
 15 16  2  0  0  0  0
 15 17  1  0  0  0  0
 17 18  1  0  0  0  0
 15 19  1  0  0  0  0
 19 20  1  0  0  0  0
  1 21  1  0  0  0  0
  1 22  1  0  0  0  0
  1 23  1  0  0  0  0
  2 24  1  0  0  0  0
  2 25  1  0  0  0  0
  6 26  1  0  0  0  0
  6 27  1  0  0  0  0
 12 28  1  0  0  0  0
 12 29  1  0  0  0  0
 13 30  1  0  0  0  0
 13 31  1  0  0  0  0
 13 32  1  0  0  0  0
 18 33  1  0  0  0  0
 18 34  1  0  0  0  0
 18 35  1  0  0  0  0
 20 36  1  0  0  0  0
 20 37  1  0  0  0  0
 20 38  1  0  0  0  0
M  END
