 xtb: 6.7.1 (edcfbbe)
          04092505213D

 41 40  0     0  0            999 V2000
    3.8597   -1.9437   -2.4059 C   0  0  0  0  0  0  0  0  0  0  0  0
    4.4859   -1.7019   -1.0483 C   0  0  0  0  0  0  0  0  0  0  0  0
    3.5066   -1.3896   -0.0392 O   0  0  0  0  0  0  0  0  0  0  0  0
    2.6215   -0.0696   -0.0731 P   0  0  0  0  0  0  0  0  0  0  0  0
    3.5184    1.5676   -0.6498 S   0  0  0  0  0  0  0  0  0  0  0  0
    2.1221    0.0215    1.4185 O   0  0  0  0  0  0  0  0  0  0  0  0
    1.5350   -1.1009    2.1249 C   0  0  0  0  0  0  0  0  0  0  0  0
    0.6007   -0.5523    3.1831 C   0  0  0  0  0  0  0  0  0  0  0  0
    0.9101   -0.6414   -1.2192 S   0  0  0  0  0  0  0  0  0  0  0  0
    0.2784    1.0354   -1.4541 C   0  0  0  0  0  0  0  0  0  0  0  0
   -0.4011    1.7428    0.0718 S   0  0  0  0  0  0  0  0  0  0  0  0
   -2.1788    0.5974    0.0601 P   0  0  0  0  0  0  0  0  0  0  0  0
   -3.0521    0.4233   -1.6904 S   0  0  0  0  0  0  0  0  0  0  0  0
   -2.8834    1.4196    1.2157 O   0  0  0  0  0  0  0  0  0  0  0  0
   -4.0447    0.9421    1.9306 C   0  0  0  0  0  0  0  0  0  0  0  0
   -5.3177    1.1285    1.1291 C   0  0  0  0  0  0  0  0  0  0  0  0
   -1.8382   -0.7954    0.7556 O   0  0  0  0  0  0  0  0  0  0  0  0
   -1.9907   -2.0773    0.1182 C   0  0  0  0  0  0  0  0  0  0  0  0
   -3.3153   -2.7016    0.5092 C   0  0  0  0  0  0  0  0  0  0  0  0
    4.6215   -2.2998   -3.0920 H   0  0  0  0  0  0  0  0  0  0  0  0
    3.0650   -2.6818   -2.3322 H   0  0  0  0  0  0  0  0  0  0  0  0
    3.4432   -1.0157   -2.7948 H   0  0  0  0  0  0  0  0  0  0  0  0
    5.2034   -0.8775   -1.0970 H   0  0  0  0  0  0  0  0  0  0  0  0
    4.9738   -2.5986   -0.6635 H   0  0  0  0  0  0  0  0  0  0  0  0
    1.0037   -1.7285    1.4032 H   0  0  0  0  0  0  0  0  0  0  0  0
    2.3534   -1.6730    2.5658 H   0  0  0  0  0  0  0  0  0  0  0  0
    0.1879   -1.3758    3.7568 H   0  0  0  0  0  0  0  0  0  0  0  0
    1.1432    0.1159    3.8456 H   0  0  0  0  0  0  0  0  0  0  0  0
   -0.2101    0.0044    2.7185 H   0  0  0  0  0  0  0  0  0  0  0  0
   -0.5037    0.9827   -2.2129 H   0  0  0  0  0  0  0  0  0  0  0  0
    1.0960    1.6844   -1.7690 H   0  0  0  0  0  0  0  0  0  0  0  0
   -3.8913   -0.1087    2.1891 H   0  0  0  0  0  0  0  0  0  0  0  0
   -4.0558    1.5471    2.8389 H   0  0  0  0  0  0  0  0  0  0  0  0
   -5.4407    2.1739    0.8581 H   0  0  0  0  0  0  0  0  0  0  0  0
   -5.2830    0.5396    0.2144 H   0  0  0  0  0  0  0  0  0  0  0  0
   -6.1672    0.8098    1.7250 H   0  0  0  0  0  0  0  0  0  0  0  0
   -1.9267   -1.9513   -0.9666 H   0  0  0  0  0  0  0  0  0  0  0  0
   -1.1462   -2.6734    0.4658 H   0  0  0  0  0  0  0  0  0  0  0  0
   -3.3843   -3.6920    0.0712 H   0  0  0  0  0  0  0  0  0  0  0  0
   -3.3930   -2.7818    1.5900 H   0  0  0  0  0  0  0  0  0  0  0  0
   -4.1366   -2.0938    0.1341 H   0  0  0  0  0  0  0  0  0  0  0  0
  1  2  1  0  0  0  0
  2  3  1  0  0  0  0
  3  4  2  0  0  0  0
  4  5  2  0  0  0  0
  4  6  2  0  0  0  0
  6  7  1  0  0  0  0
  7  8  1  0  0  0  0
  4  9  1  0  0  0  0
  9 10  1  0  0  0  0
 10 11  1  0  0  0  0
 11 12  1  0  0  0  0
 12 13  2  0  0  0  0
 12 14  2  0  0  0  0
 14 15  1  0  0  0  0
 15 16  1  0  0  0  0
 12 17  2  0  0  0  0
 17 18  1  0  0  0  0
 18 19  1  0  0  0  0
  1 20  1  0  0  0  0
  1 21  1  0  0  0  0
  1 22  1  0  0  0  0
  2 23  1  0  0  0  0
  2 24  1  0  0  0  0
  7 25  1  0  0  0  0
  7 26  1  0  0  0  0
  8 27  1  0  0  0  0
  8 28  1  0  0  0  0
  8 29  1  0  0  0  0
 10 30  1  0  0  0  0
 10 31  1  0  0  0  0
 15 32  1  0  0  0  0
 15 33  1  0  0  0  0
 16 34  1  0  0  0  0
 16 35  1  0  0  0  0
 16 36  1  0  0  0  0
 18 37  1  0  0  0  0
 18 38  1  0  0  0  0
 19 39  1  0  0  0  0
 19 40  1  0  0  0  0
 19 41  1  0  0  0  0
M  END
