 xtb: 6.7.1 (edcfbbe)
          04092505213D

 41 40  0     0  0            999 V2000
    5.1305   -1.3667   -0.6397 C   0  0  0  0  0  0  0  0  0  0  0  0
    4.5828   -0.3005   -1.5649 C   0  0  0  0  0  0  0  0  0  0  0  0
    3.1660   -0.1006   -1.3800 O   0  0  0  0  0  0  0  0  0  0  0  0
    2.5811    0.5309   -0.0445 P   0  0  0  0  0  0  0  0  0  0  0  0
    3.6868    1.8911    0.8272 S   0  0  0  0  0  0  0  0  0  0  0  0
    2.2955   -0.7751    0.8278 O   0  0  0  0  0  0  0  0  0  0  0  0
    2.1846   -0.7287    2.2584 C   0  0  0  0  0  0  0  0  0  0  0  0
    0.9727    0.0564    2.7169 C   0  0  0  0  0  0  0  0  0  0  0  0
    0.7068    1.1525   -0.7938 S   0  0  0  0  0  0  0  0  0  0  0  0
    0.1608   -0.4207   -1.5290 C   0  0  0  0  0  0  0  0  0  0  0  0
   -0.6378   -1.5384   -0.3481 S   0  0  0  0  0  0  0  0  0  0  0  0
   -2.4067   -0.4194   -0.1229 P   0  0  0  0  0  0  0  0  0  0  0  0
   -3.1119    0.4455   -1.7407 S   0  0  0  0  0  0  0  0  0  0  0  0
   -2.0208    0.5128    1.0947 O   0  0  0  0  0  0  0  0  0  0  0  0
   -2.7695    1.7059    1.4222 C   0  0  0  0  0  0  0  0  0  0  0  0
   -2.0813    2.9340    0.8613 C   0  0  0  0  0  0  0  0  0  0  0  0
   -3.4163   -1.4304    0.5751 O   0  0  0  0  0  0  0  0  0  0  0  0
   -4.2503   -2.3441   -0.1667 C   0  0  0  0  0  0  0  0  0  0  0  0
   -5.6946   -2.1426    0.2488 C   0  0  0  0  0  0  0  0  0  0  0  0
    6.1676   -1.5632   -0.8931 H   0  0  0  0  0  0  0  0  0  0  0  0
    5.0785   -1.0230    0.3925 H   0  0  0  0  0  0  0  0  0  0  0  0
    4.5537   -2.2830   -0.7356 H   0  0  0  0  0  0  0  0  0  0  0  0
    4.6699   -0.5878   -2.6136 H   0  0  0  0  0  0  0  0  0  0  0  0
    5.0905    0.6544   -1.3969 H   0  0  0  0  0  0  0  0  0  0  0  0
    2.1216   -1.7772    2.5519 H   0  0  0  0  0  0  0  0  0  0  0  0
    3.0982   -0.2780    2.6596 H   0  0  0  0  0  0  0  0  0  0  0  0
    0.9164    0.0326    3.8004 H   0  0  0  0  0  0  0  0  0  0  0  0
    1.0628    1.0932    2.3909 H   0  0  0  0  0  0  0  0  0  0  0  0
    0.0599   -0.3634    2.3013 H   0  0  0  0  0  0  0  0  0  0  0  0
    1.0157   -0.9435   -1.9458 H   0  0  0  0  0  0  0  0  0  0  0  0
   -0.5598   -0.1522   -2.3023 H   0  0  0  0  0  0  0  0  0  0  0  0
   -3.7855    1.6144    1.0289 H   0  0  0  0  0  0  0  0  0  0  0  0
   -2.7970    1.7244    2.5126 H   0  0  0  0  0  0  0  0  0  0  0  0
   -2.6190    3.8223    1.1765 H   0  0  0  0  0  0  0  0  0  0  0  0
   -1.0557    2.9874    1.2162 H   0  0  0  0  0  0  0  0  0  0  0  0
   -2.0650    2.8938   -0.2259 H   0  0  0  0  0  0  0  0  0  0  0  0
   -4.1243   -2.1577   -1.2377 H   0  0  0  0  0  0  0  0  0  0  0  0
   -3.9001   -3.3496    0.0740 H   0  0  0  0  0  0  0  0  0  0  0  0
   -6.0281   -1.1460   -0.0308 H   0  0  0  0  0  0  0  0  0  0  0  0
   -6.3162   -2.8779   -0.2517 H   0  0  0  0  0  0  0  0  0  0  0  0
   -5.7921   -2.2589    1.3243 H   0  0  0  0  0  0  0  0  0  0  0  0
  1  2  1  0  0  0  0
  2  3  1  0  0  0  0
  3  4  2  0  0  0  0
  4  5  2  0  0  0  0
  4  6  2  0  0  0  0
  6  7  1  0  0  0  0
  7  8  1  0  0  0  0
  4  9  1  0  0  0  0
  9 10  1  0  0  0  0
 10 11  1  0  0  0  0
 11 12  1  0  0  0  0
 12 13  2  0  0  0  0
 12 14  2  0  0  0  0
 14 15  1  0  0  0  0
 15 16  1  0  0  0  0
 12 17  2  0  0  0  0
 17 18  1  0  0  0  0
 18 19  1  0  0  0  0
  1 20  1  0  0  0  0
  1 21  1  0  0  0  0
  1 22  1  0  0  0  0
  2 23  1  0  0  0  0
  2 24  1  0  0  0  0
  7 25  1  0  0  0  0
  7 26  1  0  0  0  0
  8 27  1  0  0  0  0
  8 28  1  0  0  0  0
  8 29  1  0  0  0  0
 10 30  1  0  0  0  0
 10 31  1  0  0  0  0
 15 32  1  0  0  0  0
 15 33  1  0  0  0  0
 16 34  1  0  0  0  0
 16 35  1  0  0  0  0
 16 36  1  0  0  0  0
 18 37  1  0  0  0  0
 18 38  1  0  0  0  0
 19 39  1  0  0  0  0
 19 40  1  0  0  0  0
 19 41  1  0  0  0  0
M  END
