 xtb: 6.7.1 (edcfbbe)
          04092505203D

 41 40  0     0  0            999 V2000
    3.8142    0.7056   -2.4010 C   0  0  0  0  0  0  0  0  0  0  0  0
    2.5427   -0.0625   -2.1087 C   0  0  0  0  0  0  0  0  0  0  0  0
    1.8181    0.5436   -1.0092 O   0  0  0  0  0  0  0  0  0  0  0  0
    1.9197    0.0835    0.4939 P   0  0  0  0  0  0  0  0  0  0  0  0
    0.8888    1.2506    1.6727 S   0  0  0  0  0  0  0  0  0  0  0  0
    3.4852    0.0893    0.7772 O   0  0  0  0  0  0  0  0  0  0  0  0
    4.0277    0.0937    2.1094 C   0  0  0  0  0  0  0  0  0  0  0  0
    3.7304   -1.1923    2.8522 C   0  0  0  0  0  0  0  0  0  0  0  0
    1.4872   -2.0030    0.4665 S   0  0  0  0  0  0  0  0  0  0  0  0
   -0.1403   -2.0096   -0.3297 C   0  0  0  0  0  0  0  0  0  0  0  0
   -1.4610   -1.2449    0.6624 S   0  0  0  0  0  0  0  0  0  0  0  0
   -2.0387    0.3415   -0.6439 P   0  0  0  0  0  0  0  0  0  0  0  0
   -1.0982    0.4650   -2.3513 S   0  0  0  0  0  0  0  0  0  0  0  0
   -1.9545    1.6671    0.1975 O   0  0  0  0  0  0  0  0  0  0  0  0
   -2.6228    1.8304    1.4748 C   0  0  0  0  0  0  0  0  0  0  0  0
   -2.2806    3.2093    1.9951 C   0  0  0  0  0  0  0  0  0  0  0  0
   -3.6212    0.1702   -0.7679 O   0  0  0  0  0  0  0  0  0  0  0  0
   -4.2478   -0.6536   -1.7666 C   0  0  0  0  0  0  0  0  0  0  0  0
   -3.9087   -2.1218   -1.6100 C   0  0  0  0  0  0  0  0  0  0  0  0
    4.2916    0.2762   -3.2762 H   0  0  0  0  0  0  0  0  0  0  0  0
    3.5813    1.7492   -2.5951 H   0  0  0  0  0  0  0  0  0  0  0  0
    4.4929    0.6473   -1.5541 H   0  0  0  0  0  0  0  0  0  0  0  0
    2.7606   -1.1048   -1.8597 H   0  0  0  0  0  0  0  0  0  0  0  0
    1.8423   -0.0154   -2.9465 H   0  0  0  0  0  0  0  0  0  0  0  0
    5.0985    0.2323    1.9536 H   0  0  0  0  0  0  0  0  0  0  0  0
    3.6148    0.9535    2.6463 H   0  0  0  0  0  0  0  0  0  0  0  0
    4.2613   -1.1904    3.7987 H   0  0  0  0  0  0  0  0  0  0  0  0
    2.6617   -1.2695    3.0483 H   0  0  0  0  0  0  0  0  0  0  0  0
    4.0418   -2.0515    2.2634 H   0  0  0  0  0  0  0  0  0  0  0  0
   -0.3857   -3.0612   -0.4560 H   0  0  0  0  0  0  0  0  0  0  0  0
   -0.0907   -1.4910   -1.2919 H   0  0  0  0  0  0  0  0  0  0  0  0
   -3.6958    1.7080    1.3148 H   0  0  0  0  0  0  0  0  0  0  0  0
   -2.2581    1.0526    2.1520 H   0  0  0  0  0  0  0  0  0  0  0  0
   -2.7825    3.3653    2.9442 H   0  0  0  0  0  0  0  0  0  0  0  0
   -1.2057    3.2875    2.1393 H   0  0  0  0  0  0  0  0  0  0  0  0
   -2.5976    3.9674    1.2848 H   0  0  0  0  0  0  0  0  0  0  0  0
   -5.3128   -0.4680   -1.6202 H   0  0  0  0  0  0  0  0  0  0  0  0
   -3.9390   -0.2910   -2.7519 H   0  0  0  0  0  0  0  0  0  0  0  0
   -4.1021   -2.4499   -0.5918 H   0  0  0  0  0  0  0  0  0  0  0  0
   -4.5159   -2.7016   -2.2977 H   0  0  0  0  0  0  0  0  0  0  0  0
   -2.8580   -2.2865   -1.8441 H   0  0  0  0  0  0  0  0  0  0  0  0
  1  2  1  0  0  0  0
  2  3  1  0  0  0  0
  3  4  2  0  0  0  0
  4  5  2  0  0  0  0
  4  6  2  0  0  0  0
  6  7  1  0  0  0  0
  7  8  1  0  0  0  0
  4  9  1  0  0  0  0
  9 10  1  0  0  0  0
 10 11  1  0  0  0  0
 11 12  1  0  0  0  0
 12 13  2  0  0  0  0
 12 14  2  0  0  0  0
 14 15  1  0  0  0  0
 15 16  1  0  0  0  0
 12 17  2  0  0  0  0
 17 18  1  0  0  0  0
 18 19  1  0  0  0  0
  1 20  1  0  0  0  0
  1 21  1  0  0  0  0
  1 22  1  0  0  0  0
  2 23  1  0  0  0  0
  2 24  1  0  0  0  0
  7 25  1  0  0  0  0
  7 26  1  0  0  0  0
  8 27  1  0  0  0  0
  8 28  1  0  0  0  0
  8 29  1  0  0  0  0
 10 30  1  0  0  0  0
 10 31  1  0  0  0  0
 15 32  1  0  0  0  0
 15 33  1  0  0  0  0
 16 34  1  0  0  0  0
 16 35  1  0  0  0  0
 16 36  1  0  0  0  0
 18 37  1  0  0  0  0
 18 38  1  0  0  0  0
 19 39  1  0  0  0  0
 19 40  1  0  0  0  0
 19 41  1  0  0  0  0
M  END
