 xtb: 6.7.1 (edcfbbe)
          04092505203D

 41 40  0     0  0            999 V2000
    4.6562   -1.3733   -0.9002 C   0  0  0  0  0  0  0  0  0  0  0  0
    4.6165    0.0921   -0.5178 C   0  0  0  0  0  0  0  0  0  0  0  0
    3.4623    0.4128    0.2779 O   0  0  0  0  0  0  0  0  0  0  0  0
    1.9820    0.3909   -0.3106 P   0  0  0  0  0  0  0  0  0  0  0  0
    1.8697    1.0532   -2.1584 S   0  0  0  0  0  0  0  0  0  0  0  0
    1.2195    1.1992    0.8162 O   0  0  0  0  0  0  0  0  0  0  0  0
    1.3149    2.6371    0.8989 C   0  0  0  0  0  0  0  0  0  0  0  0
    0.5003    3.0797    2.0952 C   0  0  0  0  0  0  0  0  0  0  0  0
    1.2940   -1.5507    0.0749 S   0  0  0  0  0  0  0  0  0  0  0  0
    0.0526   -1.7232   -1.2536 C   0  0  0  0  0  0  0  0  0  0  0  0
   -1.6186   -1.9995   -0.6291 S   0  0  0  0  0  0  0  0  0  0  0  0
   -1.9817   -0.0646    0.1787 P   0  0  0  0  0  0  0  0  0  0  0  0
   -1.5057    1.4599   -0.9509 S   0  0  0  0  0  0  0  0  0  0  0  0
   -1.2583   -0.0403    1.5776 O   0  0  0  0  0  0  0  0  0  0  0  0
   -1.5176   -1.0228    2.6153 C   0  0  0  0  0  0  0  0  0  0  0  0
   -0.3204   -1.0469    3.5417 C   0  0  0  0  0  0  0  0  0  0  0  0
   -3.5105   -0.1383    0.6140 O   0  0  0  0  0  0  0  0  0  0  0  0
   -4.5988    0.1717   -0.2746 C   0  0  0  0  0  0  0  0  0  0  0  0
   -4.7166   -0.8202   -1.4133 C   0  0  0  0  0  0  0  0  0  0  0  0
    4.5498   -1.9979   -0.0170 H   0  0  0  0  0  0  0  0  0  0  0  0
    3.8447   -1.5976   -1.5911 H   0  0  0  0  0  0  0  0  0  0  0  0
    5.6018   -1.5907   -1.3863 H   0  0  0  0  0  0  0  0  0  0  0  0
    4.6034    0.7225   -1.4127 H   0  0  0  0  0  0  0  0  0  0  0  0
    5.4575    0.3669    0.1202 H   0  0  0  0  0  0  0  0  0  0  0  0
    2.3685    2.9112    1.0010 H   0  0  0  0  0  0  0  0  0  0  0  0
    0.9211    3.0590   -0.0324 H   0  0  0  0  0  0  0  0  0  0  0  0
   -0.5295    2.7522    1.9741 H   0  0  0  0  0  0  0  0  0  0  0  0
    0.9060    2.6428    3.0029 H   0  0  0  0  0  0  0  0  0  0  0  0
    0.5279    4.1621    2.1659 H   0  0  0  0  0  0  0  0  0  0  0  0
    0.3030   -2.6073   -1.8342 H   0  0  0  0  0  0  0  0  0  0  0  0
    0.0790   -0.8230   -1.8741 H   0  0  0  0  0  0  0  0  0  0  0  0
   -2.4274   -0.7175    3.1350 H   0  0  0  0  0  0  0  0  0  0  0  0
   -1.6788   -1.9969    2.1441 H   0  0  0  0  0  0  0  0  0  0  0  0
   -0.1643   -0.0634    3.9751 H   0  0  0  0  0  0  0  0  0  0  0  0
   -0.4993   -1.7668    4.3337 H   0  0  0  0  0  0  0  0  0  0  0  0
    0.5731   -1.3320    2.9918 H   0  0  0  0  0  0  0  0  0  0  0  0
   -5.4752    0.1460    0.3746 H   0  0  0  0  0  0  0  0  0  0  0  0
   -4.4502    1.1850   -0.6603 H   0  0  0  0  0  0  0  0  0  0  0  0
   -4.7353   -1.8372   -1.0299 H   0  0  0  0  0  0  0  0  0  0  0  0
   -5.6312   -0.6242   -1.9639 H   0  0  0  0  0  0  0  0  0  0  0  0
   -3.8702   -0.7148   -2.0901 H   0  0  0  0  0  0  0  0  0  0  0  0
  1  2  1  0  0  0  0
  2  3  1  0  0  0  0
  3  4  2  0  0  0  0
  4  5  2  0  0  0  0
  4  6  2  0  0  0  0
  6  7  1  0  0  0  0
  7  8  1  0  0  0  0
  4  9  1  0  0  0  0
  9 10  1  0  0  0  0
 10 11  1  0  0  0  0
 11 12  1  0  0  0  0
 12 13  2  0  0  0  0
 12 14  2  0  0  0  0
 14 15  1  0  0  0  0
 15 16  1  0  0  0  0
 12 17  2  0  0  0  0
 17 18  1  0  0  0  0
 18 19  1  0  0  0  0
  1 20  1  0  0  0  0
  1 21  1  0  0  0  0
  1 22  1  0  0  0  0
  2 23  1  0  0  0  0
  2 24  1  0  0  0  0
  7 25  1  0  0  0  0
  7 26  1  0  0  0  0
  8 27  1  0  0  0  0
  8 28  1  0  0  0  0
  8 29  1  0  0  0  0
 10 30  1  0  0  0  0
 10 31  1  0  0  0  0
 15 32  1  0  0  0  0
 15 33  1  0  0  0  0
 16 34  1  0  0  0  0
 16 35  1  0  0  0  0
 16 36  1  0  0  0  0
 18 37  1  0  0  0  0
 18 38  1  0  0  0  0
 19 39  1  0  0  0  0
 19 40  1  0  0  0  0
 19 41  1  0  0  0  0
M  END
