 xtb: 6.7.1 (edcfbbe)
          04032519583D

 10  9  0     0  0            999 V2000
   -0.5836   -0.0093   -0.4919 C   0  0  0  0  0  0  0  0  0  0  0  0
    0.5836    0.0092    0.4919 C   0  0  0  0  0  0  0  0  0  0  0  0
    1.7838   -0.0187   -0.2480 O   0  0  0  0  0  0  0  0  0  0  0  0
   -1.7838    0.0188    0.2480 O   0  0  0  0  0  0  0  0  0  0  0  0
   -0.5139   -0.9174   -1.1037 H   0  0  0  0  0  0  0  0  0  0  0  0
   -0.5024    0.8637   -1.1517 H   0  0  0  0  0  0  0  0  0  0  0  0
    0.5024   -0.8638    1.1516 H   0  0  0  0  0  0  0  0  0  0  0  0
    0.5138    0.9173    1.1038 H   0  0  0  0  0  0  0  0  0  0  0  0
    2.5338   -0.0046    0.3624 H   0  0  0  0  0  0  0  0  0  0  0  0
   -2.5338    0.0047   -0.3624 H   0  0  0  0  0  0  0  0  0  0  0  0
  1  2  1  0  0  0  0
  2  3  1  0  0  0  0
  1  4  1  0  0  0  0
  1  5  1  0  0  0  0
  1  6  1  0  0  0  0
  2  7  1  0  0  0  0
  2  8  1  0  0  0  0
  3  9  1  0  0  0  0
  4 10  1  0  0  0  0
M  END
