 xtb: 6.7.1 (edcfbbe)
          04092505203D

 41 40  0     0  0            999 V2000
    5.7970   -0.7561   -0.3838 C   0  0  0  0  0  0  0  0  0  0  0  0
    4.9191   -0.0872   -1.4207 C   0  0  0  0  0  0  0  0  0  0  0  0
    3.5610   -0.5727   -1.3759 O   0  0  0  0  0  0  0  0  0  0  0  0
    2.5906   -0.2662   -0.1624 P   0  0  0  0  0  0  0  0  0  0  0  0
    2.7890    1.5123    0.6476 S   0  0  0  0  0  0  0  0  0  0  0  0
    2.8852   -1.4851    0.8157 O   0  0  0  0  0  0  0  0  0  0  0  0
    2.4823   -1.4808    2.1950 C   0  0  0  0  0  0  0  0  0  0  0  0
    0.9925   -1.7097    2.3488 C   0  0  0  0  0  0  0  0  0  0  0  0
    0.7666   -0.7505   -1.1220 S   0  0  0  0  0  0  0  0  0  0  0  0
    0.1041    0.9348   -1.2815 C   0  0  0  0  0  0  0  0  0  0  0  0
   -0.7611    1.5045    0.2070 S   0  0  0  0  0  0  0  0  0  0  0  0
   -2.4647    0.2814   -0.0423 P   0  0  0  0  0  0  0  0  0  0  0  0
   -3.1104    0.0144   -1.8788 S   0  0  0  0  0  0  0  0  0  0  0  0
   -3.5338    0.8708    0.9739 O   0  0  0  0  0  0  0  0  0  0  0  0
   -4.4754    1.8913    0.5997 C   0  0  0  0  0  0  0  0  0  0  0  0
   -3.7996    3.2194    0.3255 C   0  0  0  0  0  0  0  0  0  0  0  0
   -1.9730   -1.0165    0.7194 O   0  0  0  0  0  0  0  0  0  0  0  0
   -2.5650   -2.3114    0.4919 C   0  0  0  0  0  0  0  0  0  0  0  0
   -3.9931   -2.3732    0.9917 C   0  0  0  0  0  0  0  0  0  0  0  0
    5.4822   -0.4602    0.6158 H   0  0  0  0  0  0  0  0  0  0  0  0
    5.7230   -1.8369   -0.4708 H   0  0  0  0  0  0  0  0  0  0  0  0
    6.8276   -0.4499   -0.5343 H   0  0  0  0  0  0  0  0  0  0  0  0
    5.2432   -0.3180   -2.4362 H   0  0  0  0  0  0  0  0  0  0  0  0
    4.9030    0.9971   -1.2706 H   0  0  0  0  0  0  0  0  0  0  0  0
    3.0595   -2.2916    2.6420 H   0  0  0  0  0  0  0  0  0  0  0  0
    2.7747   -0.5240    2.6408 H   0  0  0  0  0  0  0  0  0  0  0  0
    0.7505   -1.8224    3.4008 H   0  0  0  0  0  0  0  0  0  0  0  0
    0.4340   -0.8631    1.9506 H   0  0  0  0  0  0  0  0  0  0  0  0
    0.6957   -2.6065    1.8103 H   0  0  0  0  0  0  0  0  0  0  0  0
   -0.5968    0.9155   -2.1161 H   0  0  0  0  0  0  0  0  0  0  0  0
    0.9157    1.6371   -1.4577 H   0  0  0  0  0  0  0  0  0  0  0  0
   -5.0222    1.5496   -0.2851 H   0  0  0  0  0  0  0  0  0  0  0  0
   -5.1500    1.9513    1.4548 H   0  0  0  0  0  0  0  0  0  0  0  0
   -3.1658    3.5012    1.1627 H   0  0  0  0  0  0  0  0  0  0  0  0
   -3.1828    3.1463   -0.5694 H   0  0  0  0  0  0  0  0  0  0  0  0
   -4.5551    3.9830    0.1706 H   0  0  0  0  0  0  0  0  0  0  0  0
   -2.5166   -2.5299   -0.5796 H   0  0  0  0  0  0  0  0  0  0  0  0
   -1.9149   -2.9957    1.0381 H   0  0  0  0  0  0  0  0  0  0  0  0
   -4.6219   -1.7112    0.3974 H   0  0  0  0  0  0  0  0  0  0  0  0
   -4.3642   -3.3890    0.8987 H   0  0  0  0  0  0  0  0  0  0  0  0
   -4.0397   -2.0620    2.0319 H   0  0  0  0  0  0  0  0  0  0  0  0
  1  2  1  0  0  0  0
  2  3  1  0  0  0  0
  3  4  2  0  0  0  0
  4  5  2  0  0  0  0
  4  6  2  0  0  0  0
  6  7  1  0  0  0  0
  7  8  1  0  0  0  0
  4  9  1  0  0  0  0
  9 10  1  0  0  0  0
 10 11  1  0  0  0  0
 11 12  1  0  0  0  0
 12 13  2  0  0  0  0
 12 14  2  0  0  0  0
 14 15  1  0  0  0  0
 15 16  1  0  0  0  0
 12 17  2  0  0  0  0
 17 18  1  0  0  0  0
 18 19  1  0  0  0  0
  1 20  1  0  0  0  0
  1 21  1  0  0  0  0
  1 22  1  0  0  0  0
  2 23  1  0  0  0  0
  2 24  1  0  0  0  0
  7 25  1  0  0  0  0
  7 26  1  0  0  0  0
  8 27  1  0  0  0  0
  8 28  1  0  0  0  0
  8 29  1  0  0  0  0
 10 30  1  0  0  0  0
 10 31  1  0  0  0  0
 15 32  1  0  0  0  0
 15 33  1  0  0  0  0
 16 34  1  0  0  0  0
 16 35  1  0  0  0  0
 16 36  1  0  0  0  0
 18 37  1  0  0  0  0
 18 38  1  0  0  0  0
 19 39  1  0  0  0  0
 19 40  1  0  0  0  0
 19 41  1  0  0  0  0
M  END
