 xtb: 6.7.1 (edcfbbe)
          04092507313D

 38 37  0     0  0            999 V2000
    3.2532   -3.8964   -0.8405 C   0  0  0  0  0  0  0  0  0  0  0  0
    4.0110   -2.5823   -0.9401 C   0  0  0  0  0  0  0  0  0  0  0  0
    3.2174   -1.5915   -1.6234 O   0  0  0  0  0  0  0  0  0  0  0  0
    2.3935   -0.8488   -0.9235 C   0  0  0  0  0  0  0  0  0  0  0  0
    2.2666   -0.8985    0.2848 O   0  0  0  0  0  0  0  0  0  0  0  0
    1.6174    0.1178   -1.7933 C   0  0  0  0  0  0  0  0  0  0  0  0
    0.3739    0.5707   -1.0434 C   0  0  0  0  0  0  0  0  0  0  0  0
   -0.1169    1.4064   -1.5510 H   0  0  0  0  0  0  0  0  0  0  0  0
    0.7023    1.0061    0.3726 C   0  0  0  0  0  0  0  0  0  0  0  0
    0.0345    0.6638    1.3311 O   0  0  0  0  0  0  0  0  0  0  0  0
    1.6900    1.8577    0.4159 O   0  0  0  0  0  0  0  0  0  0  0  0
    2.0616    2.3777    1.7098 C   0  0  0  0  0  0  0  0  0  0  0  0
    3.1017    3.4591    1.4979 C   0  0  0  0  0  0  0  0  0  0  0  0
   -0.8322   -0.7945   -0.9206 S   0  0  0  0  0  0  0  0  0  0  0  0
   -2.2751    0.1472    0.3168 P   0  0  0  0  0  0  0  0  0  0  0  0
   -2.4237    2.0959    0.2049 S   0  0  0  0  0  0  0  0  0  0  0  0
   -3.6007   -0.5784   -0.2477 O   0  0  0  0  0  0  0  0  0  0  0  0
   -4.1061   -0.3027   -1.5562 C   0  0  0  0  0  0  0  0  0  0  0  0
   -2.3215   -0.4511    1.7798 O   0  0  0  0  0  0  0  0  0  0  0  0
   -1.9958   -1.8218    2.0686 C   0  0  0  0  0  0  0  0  0  0  0  0
    2.9653   -4.2378   -1.8306 H   0  0  0  0  0  0  0  0  0  0  0  0
    3.8869   -4.6428   -0.3731 H   0  0  0  0  0  0  0  0  0  0  0  0
    2.3567   -3.7664   -0.2381 H   0  0  0  0  0  0  0  0  0  0  0  0
    4.9074   -2.6842   -1.5517 H   0  0  0  0  0  0  0  0  0  0  0  0
    4.2661   -2.2035    0.0537 H   0  0  0  0  0  0  0  0  0  0  0  0
    1.3576   -0.3622   -2.7358 H   0  0  0  0  0  0  0  0  0  0  0  0
    2.2533    0.9818   -1.9969 H   0  0  0  0  0  0  0  0  0  0  0  0
    1.1587    2.7624    2.1951 H   0  0  0  0  0  0  0  0  0  0  0  0
    2.4477    1.5442    2.3048 H   0  0  0  0  0  0  0  0  0  0  0  0
    2.6921    4.2523    0.8798 H   0  0  0  0  0  0  0  0  0  0  0  0
    3.3896    3.8681    2.4605 H   0  0  0  0  0  0  0  0  0  0  0  0
    3.9770    3.0439    1.0081 H   0  0  0  0  0  0  0  0  0  0  0  0
   -4.1561    0.7758   -1.7166 H   0  0  0  0  0  0  0  0  0  0  0  0
   -5.1021   -0.7372   -1.5832 H   0  0  0  0  0  0  0  0  0  0  0  0
   -3.4630   -0.7626   -2.3066 H   0  0  0  0  0  0  0  0  0  0  0  0
   -2.3186   -1.9796    3.0944 H   0  0  0  0  0  0  0  0  0  0  0  0
   -0.9174   -1.9602    1.9825 H   0  0  0  0  0  0  0  0  0  0  0  0
   -2.5227   -2.4891    1.3877 H   0  0  0  0  0  0  0  0  0  0  0  0
  1  2  1  0  0  0  0
  2  3  1  0  0  0  0
  3  4  4  0  0  0  0
  4  5  2  0  0  0  0
  4  6  1  0  0  0  0
  6  7  1  0  0  0  0
  7  8  1  0  0  0  0
  7  9  1  0  0  0  0
  9 10  2  0  0  0  0
  9 11  4  0  0  0  0
 11 12  1  0  0  0  0
 12 13  1  0  0  0  0
  7 14  1  0  0  0  0
 14 15  1  0  0  0  0
 15 16  2  0  0  0  0
 15 17  1  0  0  0  0
 17 18  1  0  0  0  0
 15 19  2  0  0  0  0
 19 20  1  0  0  0  0
  1 21  1  0  0  0  0
  1 22  1  0  0  0  0
  1 23  1  0  0  0  0
  2 24  1  0  0  0  0
  2 25  1  0  0  0  0
  6 26  1  0  0  0  0
  6 27  1  0  0  0  0
 12 28  1  0  0  0  0
 12 29  1  0  0  0  0
 13 30  1  0  0  0  0
 13 31  1  0  0  0  0
 13 32  1  0  0  0  0
 18 33  1  0  0  0  0
 18 34  1  0  0  0  0
 18 35  1  0  0  0  0
 20 36  1  0  0  0  0
 20 37  1  0  0  0  0
 20 38  1  0  0  0  0
M  END
