 xtb: 6.7.1 (edcfbbe)
          04092507313D

 38 37  0     0  0            999 V2000
    2.5719   -2.7703    0.7407 C   0  0  0  0  0  0  0  0  0  0  0  0
    3.2742   -1.8703   -0.2607 C   0  0  0  0  0  0  0  0  0  0  0  0
    2.3079   -0.9658   -0.8317 O   0  0  0  0  0  0  0  0  0  0  0  0
    2.2034   -0.8721   -2.1443 C   0  0  0  0  0  0  0  0  0  0  0  0
    2.9196   -1.4505   -2.9313 O   0  0  0  0  0  0  0  0  0  0  0  0
    1.0795    0.0500   -2.5702 C   0  0  0  0  0  0  0  0  0  0  0  0
    0.2160    0.5211   -1.4098 C   0  0  0  0  0  0  0  0  0  0  0  0
   -0.5562    1.2107   -1.7736 H   0  0  0  0  0  0  0  0  0  0  0  0
    1.0402    1.2868   -0.3891 C   0  0  0  0  0  0  0  0  0  0  0  0
    1.9426    2.0278   -0.7038 O   0  0  0  0  0  0  0  0  0  0  0  0
    0.6138    1.0922    0.8406 O   0  0  0  0  0  0  0  0  0  0  0  0
    1.2593    1.7979    1.9191 C   0  0  0  0  0  0  0  0  0  0  0  0
    2.3862    0.9657    2.5056 C   0  0  0  0  0  0  0  0  0  0  0  0
   -0.6561   -0.8815   -0.6349 S   0  0  0  0  0  0  0  0  0  0  0  0
   -2.0101    0.2307    0.5718 P   0  0  0  0  0  0  0  0  0  0  0  0
   -2.3642    2.0798    0.0287 S   0  0  0  0  0  0  0  0  0  0  0  0
   -3.3081   -0.7112    0.5553 O   0  0  0  0  0  0  0  0  0  0  0  0
   -4.0927   -0.8732   -0.6301 C   0  0  0  0  0  0  0  0  0  0  0  0
   -1.5974    0.0890    2.0892 O   0  0  0  0  0  0  0  0  0  0  0  0
   -1.3479   -1.1962    2.6922 C   0  0  0  0  0  0  0  0  0  0  0  0
    2.1076   -2.1697    1.5172 H   0  0  0  0  0  0  0  0  0  0  0  0
    1.8036   -3.3558    0.2429 H   0  0  0  0  0  0  0  0  0  0  0  0
    3.2982   -3.4386    1.1909 H   0  0  0  0  0  0  0  0  0  0  0  0
    3.7311   -2.4426   -1.0729 H   0  0  0  0  0  0  0  0  0  0  0  0
    4.0368   -1.2539    0.2223 H   0  0  0  0  0  0  0  0  0  0  0  0
    0.4802   -0.4719   -3.3171 H   0  0  0  0  0  0  0  0  0  0  0  0
    1.5369    0.9201   -3.0486 H   0  0  0  0  0  0  0  0  0  0  0  0
    1.6319    2.7492    1.5294 H   0  0  0  0  0  0  0  0  0  0  0  0
    0.4633    1.9731    2.6445 H   0  0  0  0  0  0  0  0  0  0  0  0
    3.1472    0.7882    1.7494 H   0  0  0  0  0  0  0  0  0  0  0  0
    2.8311    1.5052    3.3351 H   0  0  0  0  0  0  0  0  0  0  0  0
    2.0055    0.0126    2.8614 H   0  0  0  0  0  0  0  0  0  0  0  0
   -3.5455   -1.4721   -1.3580 H   0  0  0  0  0  0  0  0  0  0  0  0
   -4.3359    0.1016   -1.0559 H   0  0  0  0  0  0  0  0  0  0  0  0
   -4.9982   -1.3854   -0.3152 H   0  0  0  0  0  0  0  0  0  0  0  0
   -0.6288   -1.7549    2.0928 H   0  0  0  0  0  0  0  0  0  0  0  0
   -2.2784   -1.7548    2.7707 H   0  0  0  0  0  0  0  0  0  0  0  0
   -0.9454   -0.9765    3.6777 H   0  0  0  0  0  0  0  0  0  0  0  0
  1  2  1  0  0  0  0
  2  3  1  0  0  0  0
  3  4  1  0  0  0  0
  4  5  2  0  0  0  0
  4  6  1  0  0  0  0
  6  7  1  0  0  0  0
  7  8  1  0  0  0  0
  7  9  1  0  0  0  0
  9 10  2  0  0  0  0
  9 11  1  0  0  0  0
 11 12  1  0  0  0  0
 12 13  1  0  0  0  0
  7 14  1  0  0  0  0
 14 15  1  0  0  0  0
 15 16  2  0  0  0  0
 15 17  1  0  0  0  0
 17 18  1  0  0  0  0
 15 19  2  0  0  0  0
 19 20  1  0  0  0  0
  1 21  1  0  0  0  0
  1 22  1  0  0  0  0
  1 23  1  0  0  0  0
  2 24  1  0  0  0  0
  2 25  1  0  0  0  0
  6 26  1  0  0  0  0
  6 27  1  0  0  0  0
 12 28  1  0  0  0  0
 12 29  1  0  0  0  0
 13 30  1  0  0  0  0
 13 31  1  0  0  0  0
 13 32  1  0  0  0  0
 18 33  1  0  0  0  0
 18 34  1  0  0  0  0
 18 35  1  0  0  0  0
 20 36  1  0  0  0  0
 20 37  1  0  0  0  0
 20 38  1  0  0  0  0
M  END
