 xtb: 6.7.1 (edcfbbe)
          04092505203D

 41 40  0     0  0            999 V2000
    5.2128   -1.2278   -1.2859 C   0  0  0  0  0  0  0  0  0  0  0  0
    3.8037   -1.6524   -1.6519 C   0  0  0  0  0  0  0  0  0  0  0  0
    2.9293   -1.5992   -0.5064 O   0  0  0  0  0  0  0  0  0  0  0  0
    2.0921   -0.3075   -0.1185 P   0  0  0  0  0  0  0  0  0  0  0  0
    3.0809    1.3551    0.2161 S   0  0  0  0  0  0  0  0  0  0  0  0
    1.2540   -0.8807    1.0925 O   0  0  0  0  0  0  0  0  0  0  0  0
    1.4946   -0.4931    2.4585 C   0  0  0  0  0  0  0  0  0  0  0  0
    2.7247   -1.1850    3.0064 C   0  0  0  0  0  0  0  0  0  0  0  0
    0.6539   -0.2211   -1.6735 S   0  0  0  0  0  0  0  0  0  0  0  0
    0.0981    1.4763   -1.3560 C   0  0  0  0  0  0  0  0  0  0  0  0
   -0.5993    1.6973    0.3003 S   0  0  0  0  0  0  0  0  0  0  0  0
   -2.2046    0.3236    0.0744 P   0  0  0  0  0  0  0  0  0  0  0  0
   -3.0265    0.2389   -1.7068 S   0  0  0  0  0  0  0  0  0  0  0  0
   -3.1353    0.6630    1.3118 O   0  0  0  0  0  0  0  0  0  0  0  0
   -3.6080    1.9741    1.6731 C   0  0  0  0  0  0  0  0  0  0  0  0
   -4.3004    2.6866    0.5296 C   0  0  0  0  0  0  0  0  0  0  0  0
   -1.6026   -1.0436    0.5986 O   0  0  0  0  0  0  0  0  0  0  0  0
   -1.7814   -2.3041   -0.0692 C   0  0  0  0  0  0  0  0  0  0  0  0
   -3.0792   -2.9529    0.3651 C   0  0  0  0  0  0  0  0  0  0  0  0
    5.2234   -0.1898   -0.9611 H   0  0  0  0  0  0  0  0  0  0  0  0
    5.5934   -1.8506   -0.4811 H   0  0  0  0  0  0  0  0  0  0  0  0
    5.8541   -1.3329   -2.1550 H   0  0  0  0  0  0  0  0  0  0  0  0
    3.7728   -2.6970   -1.9672 H   0  0  0  0  0  0  0  0  0  0  0  0
    3.3953   -1.0214   -2.4468 H   0  0  0  0  0  0  0  0  0  0  0  0
    1.6071    0.5956    2.5020 H   0  0  0  0  0  0  0  0  0  0  0  0
    0.5849   -0.7897    2.9829 H   0  0  0  0  0  0  0  0  0  0  0  0
    3.6031   -0.8588    2.4506 H   0  0  0  0  0  0  0  0  0  0  0  0
    2.8504   -0.9263    4.0529 H   0  0  0  0  0  0  0  0  0  0  0  0
    2.6262   -2.2625    2.9061 H   0  0  0  0  0  0  0  0  0  0  0  0
   -0.6605    1.6943   -2.1072 H   0  0  0  0  0  0  0  0  0  0  0  0
    0.9436    2.1596   -1.4278 H   0  0  0  0  0  0  0  0  0  0  0  0
   -4.2969    1.7785    2.4969 H   0  0  0  0  0  0  0  0  0  0  0  0
   -2.7554    2.5569    2.0335 H   0  0  0  0  0  0  0  0  0  0  0  0
   -5.0983    2.0684    0.1250 H   0  0  0  0  0  0  0  0  0  0  0  0
   -4.7170    3.6224    0.8881 H   0  0  0  0  0  0  0  0  0  0  0  0
   -3.5895    2.8977   -0.2681 H   0  0  0  0  0  0  0  0  0  0  0  0
   -1.7709   -2.1418   -1.1526 H   0  0  0  0  0  0  0  0  0  0  0  0
   -0.9089   -2.8926    0.2202 H   0  0  0  0  0  0  0  0  0  0  0  0
   -3.9177   -2.3266    0.0635 H   0  0  0  0  0  0  0  0  0  0  0  0
   -3.1732   -3.9254   -0.1074 H   0  0  0  0  0  0  0  0  0  0  0  0
   -3.0984   -3.0684    1.4451 H   0  0  0  0  0  0  0  0  0  0  0  0
  1  2  1  0  0  0  0
  2  3  1  0  0  0  0
  3  4  2  0  0  0  0
  4  5  2  0  0  0  0
  4  6  2  0  0  0  0
  6  7  1  0  0  0  0
  7  8  1  0  0  0  0
  4  9  1  0  0  0  0
  9 10  1  0  0  0  0
 10 11  1  0  0  0  0
 11 12  1  0  0  0  0
 12 13  2  0  0  0  0
 12 14  2  0  0  0  0
 14 15  1  0  0  0  0
 15 16  1  0  0  0  0
 12 17  2  0  0  0  0
 17 18  1  0  0  0  0
 18 19  1  0  0  0  0
  1 20  1  0  0  0  0
  1 21  1  0  0  0  0
  1 22  1  0  0  0  0
  2 23  1  0  0  0  0
  2 24  1  0  0  0  0
  7 25  1  0  0  0  0
  7 26  1  0  0  0  0
  8 27  1  0  0  0  0
  8 28  1  0  0  0  0
  8 29  1  0  0  0  0
 10 30  1  0  0  0  0
 10 31  1  0  0  0  0
 15 32  1  0  0  0  0
 15 33  1  0  0  0  0
 16 34  1  0  0  0  0
 16 35  1  0  0  0  0
 16 36  1  0  0  0  0
 18 37  1  0  0  0  0
 18 38  1  0  0  0  0
 19 39  1  0  0  0  0
 19 40  1  0  0  0  0
 19 41  1  0  0  0  0
M  END
