 xtb: 6.7.1 (edcfbbe)
          04092505213D

 41 40  0     0  0            999 V2000
    4.0719   -1.5825   -2.3445 C   0  0  0  0  0  0  0  0  0  0  0  0
    4.1843   -0.1642   -1.8250 C   0  0  0  0  0  0  0  0  0  0  0  0
    3.5700   -0.0090   -0.5334 O   0  0  0  0  0  0  0  0  0  0  0  0
    1.9994   -0.1282   -0.3191 P   0  0  0  0  0  0  0  0  0  0  0  0
    0.9515    0.6881   -1.7688 S   0  0  0  0  0  0  0  0  0  0  0  0
    1.8130    0.4634    1.1368 O   0  0  0  0  0  0  0  0  0  0  0  0
    2.0501    1.8527    1.4521 C   0  0  0  0  0  0  0  0  0  0  0  0
    3.4557    2.0533    1.9777 C   0  0  0  0  0  0  0  0  0  0  0  0
    1.6424   -2.1557    0.0908 S   0  0  0  0  0  0  0  0  0  0  0  0
   -0.1223   -2.2192   -0.3177 C   0  0  0  0  0  0  0  0  0  0  0  0
   -1.2042   -1.6571    1.0379 S   0  0  0  0  0  0  0  0  0  0  0  0
   -2.0660    0.1399    0.3030 P   0  0  0  0  0  0  0  0  0  0  0  0
   -1.2729    1.8506    0.8615 S   0  0  0  0  0  0  0  0  0  0  0  0
   -3.5922    0.0292    0.7465 O   0  0  0  0  0  0  0  0  0  0  0  0
   -4.0519    0.5307    2.0099 C   0  0  0  0  0  0  0  0  0  0  0  0
   -3.5533   -0.3215    3.1586 C   0  0  0  0  0  0  0  0  0  0  0  0
   -2.1618   -0.2330   -1.2315 O   0  0  0  0  0  0  0  0  0  0  0  0
   -3.0700    0.3909   -2.1666 C   0  0  0  0  0  0  0  0  0  0  0  0
   -2.6909    1.8268   -2.4617 C   0  0  0  0  0  0  0  0  0  0  0  0
    4.4338   -2.2872   -1.6002 H   0  0  0  0  0  0  0  0  0  0  0  0
    3.0322   -1.8142   -2.5710 H   0  0  0  0  0  0  0  0  0  0  0  0
    4.6600   -1.6790   -3.2515 H   0  0  0  0  0  0  0  0  0  0  0  0
    3.7112    0.5388   -2.5183 H   0  0  0  0  0  0  0  0  0  0  0  0
    5.2232    0.1222   -1.6560 H   0  0  0  0  0  0  0  0  0  0  0  0
    1.8584    2.4577    0.5597 H   0  0  0  0  0  0  0  0  0  0  0  0
    1.2981    2.0972    2.2054 H   0  0  0  0  0  0  0  0  0  0  0  0
    3.5751    3.0905    2.2746 H   0  0  0  0  0  0  0  0  0  0  0  0
    3.6212    1.4101    2.8374 H   0  0  0  0  0  0  0  0  0  0  0  0
    4.1867    1.8110    1.2107 H   0  0  0  0  0  0  0  0  0  0  0  0
   -0.3560   -3.2659   -0.4912 H   0  0  0  0  0  0  0  0  0  0  0  0
   -0.3116   -1.6122   -1.2024 H   0  0  0  0  0  0  0  0  0  0  0  0
   -3.7071    1.5648    2.1187 H   0  0  0  0  0  0  0  0  0  0  0  0
   -5.1391    0.5061    1.9273 H   0  0  0  0  0  0  0  0  0  0  0  0
   -2.4649   -0.2697    3.2069 H   0  0  0  0  0  0  0  0  0  0  0  0
   -3.9666    0.0477    4.0914 H   0  0  0  0  0  0  0  0  0  0  0  0
   -3.8438   -1.3589    3.0157 H   0  0  0  0  0  0  0  0  0  0  0  0
   -2.9781   -0.2335   -3.0570 H   0  0  0  0  0  0  0  0  0  0  0  0
   -4.0819    0.3217   -1.7617 H   0  0  0  0  0  0  0  0  0  0  0  0
   -2.8162    2.4444   -1.5739 H   0  0  0  0  0  0  0  0  0  0  0  0
   -1.6485    1.8799   -2.7711 H   0  0  0  0  0  0  0  0  0  0  0  0
   -3.3226    2.2111   -3.2559 H   0  0  0  0  0  0  0  0  0  0  0  0
  1  2  1  0  0  0  0
  2  3  1  0  0  0  0
  3  4  2  0  0  0  0
  4  5  2  0  0  0  0
  4  6  2  0  0  0  0
  6  7  1  0  0  0  0
  7  8  1  0  0  0  0
  4  9  1  0  0  0  0
  9 10  1  0  0  0  0
 10 11  1  0  0  0  0
 11 12  1  0  0  0  0
 12 13  2  0  0  0  0
 12 14  2  0  0  0  0
 14 15  1  0  0  0  0
 15 16  1  0  0  0  0
 12 17  2  0  0  0  0
 17 18  1  0  0  0  0
 18 19  1  0  0  0  0
  1 20  1  0  0  0  0
  1 21  1  0  0  0  0
  1 22  1  0  0  0  0
  2 23  1  0  0  0  0
  2 24  1  0  0  0  0
  7 25  1  0  0  0  0
  7 26  1  0  0  0  0
  8 27  1  0  0  0  0
  8 28  1  0  0  0  0
  8 29  1  0  0  0  0
 10 30  1  0  0  0  0
 10 31  1  0  0  0  0
 15 32  1  0  0  0  0
 15 33  1  0  0  0  0
 16 34  1  0  0  0  0
 16 35  1  0  0  0  0
 16 36  1  0  0  0  0
 18 37  1  0  0  0  0
 18 38  1  0  0  0  0
 19 39  1  0  0  0  0
 19 40  1  0  0  0  0
 19 41  1  0  0  0  0
M  END
