 xtb: 6.7.1 (edcfbbe)
          04092507313D

 38 37  0     0  0            999 V2000
    2.6034   -3.7049    0.4989 C   0  0  0  0  0  0  0  0  0  0  0  0
    3.3317   -2.3826    0.6769 C   0  0  0  0  0  0  0  0  0  0  0  0
    3.1346   -1.5219   -0.4637 O   0  0  0  0  0  0  0  0  0  0  0  0
    2.0436   -0.8033   -0.5362 C   0  0  0  0  0  0  0  0  0  0  0  0
    1.1796   -0.7865    0.3267 O   0  0  0  0  0  0  0  0  0  0  0  0
    1.9670    0.0122   -1.8000 C   0  0  0  0  0  0  0  0  0  0  0  0
    0.7582    0.9310   -1.7788 C   0  0  0  0  0  0  0  0  0  0  0  0
    0.6607    1.4730   -2.7226 H   0  0  0  0  0  0  0  0  0  0  0  0
    0.7850    1.9396   -0.6418 C   0  0  0  0  0  0  0  0  0  0  0  0
    1.6848    2.0114    0.1671 O   0  0  0  0  0  0  0  0  0  0  0  0
   -0.2629    2.7270   -0.6911 O   0  0  0  0  0  0  0  0  0  0  0  0
   -0.4504    3.7293    0.3264 C   0  0  0  0  0  0  0  0  0  0  0  0
   -1.9315    3.8149    0.6447 C   0  0  0  0  0  0  0  0  0  0  0  0
   -0.8212   -0.0020   -1.7098 S   0  0  0  0  0  0  0  0  0  0  0  0
   -1.2372   -0.4974    0.3262 P   0  0  0  0  0  0  0  0  0  0  0  0
   -1.1298   -2.3656    0.9342 S   0  0  0  0  0  0  0  0  0  0  0  0
   -0.7864    0.6734    1.3053 O   0  0  0  0  0  0  0  0  0  0  0  0
    0.0128    0.4762    2.4706 C   0  0  0  0  0  0  0  0  0  0  0  0
   -2.7866   -0.0421    0.3256 O   0  0  0  0  0  0  0  0  0  0  0  0
   -3.7624   -0.7488   -0.4376 C   0  0  0  0  0  0  0  0  0  0  0  0
    2.9041   -4.1769   -0.4322 H   0  0  0  0  0  0  0  0  0  0  0  0
    2.8467   -4.3608    1.3281 H   0  0  0  0  0  0  0  0  0  0  0  0
    1.5257   -3.5495    0.4869 H   0  0  0  0  0  0  0  0  0  0  0  0
    4.4115   -2.5242    0.7177 H   0  0  0  0  0  0  0  0  0  0  0  0
    2.9793   -1.8648    1.5732 H   0  0  0  0  0  0  0  0  0  0  0  0
    1.9055   -0.6683   -2.6510 H   0  0  0  0  0  0  0  0  0  0  0  0
    2.8871    0.5933   -1.8857 H   0  0  0  0  0  0  0  0  0  0  0  0
    0.1414    3.4512    1.2029 H   0  0  0  0  0  0  0  0  0  0  0  0
   -0.0744    4.6717   -0.0811 H   0  0  0  0  0  0  0  0  0  0  0  0
   -2.2911    2.8519    1.0002 H   0  0  0  0  0  0  0  0  0  0  0  0
   -2.0918    4.5641    1.4128 H   0  0  0  0  0  0  0  0  0  0  0  0
   -2.4876    4.0857   -0.2477 H   0  0  0  0  0  0  0  0  0  0  0  0
   -0.4808    1.0106    3.2798 H   0  0  0  0  0  0  0  0  0  0  0  0
    1.0073    0.8842    2.2848 H   0  0  0  0  0  0  0  0  0  0  0  0
    0.0871   -0.5866    2.7072 H   0  0  0  0  0  0  0  0  0  0  0  0
   -4.7238   -0.3424   -0.1340 H   0  0  0  0  0  0  0  0  0  0  0  0
   -3.7115   -1.8165   -0.2137 H   0  0  0  0  0  0  0  0  0  0  0  0
   -3.5962   -0.5878   -1.5040 H   0  0  0  0  0  0  0  0  0  0  0  0
  1  2  1  0  0  0  0
  2  3  1  0  0  0  0
  3  4  4  0  0  0  0
  4  5  2  0  0  0  0
  4  6  1  0  0  0  0
  6  7  1  0  0  0  0
  7  8  1  0  0  0  0
  7  9  1  0  0  0  0
  9 10  2  0  0  0  0
  9 11  4  0  0  0  0
 11 12  1  0  0  0  0
 12 13  1  0  0  0  0
  7 14  1  0  0  0  0
 14 15  1  0  0  0  0
 15 16  2  0  0  0  0
 15 17  1  0  0  0  0
 17 18  1  0  0  0  0
 15 19  1  0  0  0  0
 19 20  1  0  0  0  0
  1 21  1  0  0  0  0
  1 22  1  0  0  0  0
  1 23  1  0  0  0  0
  2 24  1  0  0  0  0
  2 25  1  0  0  0  0
  6 26  1  0  0  0  0
  6 27  1  0  0  0  0
 12 28  1  0  0  0  0
 12 29  1  0  0  0  0
 13 30  1  0  0  0  0
 13 31  1  0  0  0  0
 13 32  1  0  0  0  0
 18 33  1  0  0  0  0
 18 34  1  0  0  0  0
 18 35  1  0  0  0  0
 20 36  1  0  0  0  0
 20 37  1  0  0  0  0
 20 38  1  0  0  0  0
M  END
