 xtb: 6.7.1 (edcfbbe)
          04092505203D

 41 40  0     0  0            999 V2000
    1.5460   -1.4333   -2.6855 C   0  0  0  0  0  0  0  0  0  0  0  0
    2.3238   -0.1464   -2.5115 C   0  0  0  0  0  0  0  0  0  0  0  0
    1.9845    0.5375   -1.2811 O   0  0  0  0  0  0  0  0  0  0  0  0
    2.2698    0.0052    0.1762 P   0  0  0  0  0  0  0  0  0  0  0  0
    2.4844    1.4300    1.5019 S   0  0  0  0  0  0  0  0  0  0  0  0
    3.5755   -0.8741   -0.0655 O   0  0  0  0  0  0  0  0  0  0  0  0
    4.4853   -1.2221    0.9933 C   0  0  0  0  0  0  0  0  0  0  0  0
    3.8563   -2.1334    2.0270 C   0  0  0  0  0  0  0  0  0  0  0  0
    0.7813   -1.4504    0.6415 S   0  0  0  0  0  0  0  0  0  0  0  0
   -0.1390   -0.5971    1.9571 C   0  0  0  0  0  0  0  0  0  0  0  0
   -1.9147   -0.5330    1.6306 S   0  0  0  0  0  0  0  0  0  0  0  0
   -1.8503    0.5490   -0.2010 P   0  0  0  0  0  0  0  0  0  0  0  0
   -0.6126    2.0663   -0.2523 S   0  0  0  0  0  0  0  0  0  0  0  0
   -3.3804    0.9088   -0.4220 O   0  0  0  0  0  0  0  0  0  0  0  0
   -4.0425    1.8926    0.3991 C   0  0  0  0  0  0  0  0  0  0  0  0
   -5.3544    2.2476   -0.2705 C   0  0  0  0  0  0  0  0  0  0  0  0
   -1.5741   -0.4985   -1.3423 O   0  0  0  0  0  0  0  0  0  0  0  0
   -2.3918   -1.6856   -1.5359 C   0  0  0  0  0  0  0  0  0  0  0  0
   -3.3852   -1.4649   -2.6571 C   0  0  0  0  0  0  0  0  0  0  0  0
    0.4800   -1.2314   -2.6144 H   0  0  0  0  0  0  0  0  0  0  0  0
    1.7694   -1.8549   -3.6604 H   0  0  0  0  0  0  0  0  0  0  0  0
    1.8236   -2.1489   -1.9129 H   0  0  0  0  0  0  0  0  0  0  0  0
    2.0664    0.5867   -3.2779 H   0  0  0  0  0  0  0  0  0  0  0  0
    3.4001   -0.3302   -2.5156 H   0  0  0  0  0  0  0  0  0  0  0  0
    5.3094   -1.7116    0.4723 H   0  0  0  0  0  0  0  0  0  0  0  0
    4.8355   -0.2973    1.4619 H   0  0  0  0  0  0  0  0  0  0  0  0
    4.6227   -2.4668    2.7192 H   0  0  0  0  0  0  0  0  0  0  0  0
    3.0937   -1.5902    2.5831 H   0  0  0  0  0  0  0  0  0  0  0  0
    3.3999   -2.9960    1.5485 H   0  0  0  0  0  0  0  0  0  0  0  0
    0.2618    0.4160    2.0570 H   0  0  0  0  0  0  0  0  0  0  0  0
   -0.0273   -1.1568    2.8824 H   0  0  0  0  0  0  0  0  0  0  0  0
   -4.2028    1.4580    1.3894 H   0  0  0  0  0  0  0  0  0  0  0  0
   -3.3870    2.7647    0.4927 H   0  0  0  0  0  0  0  0  0  0  0  0
   -5.9742    1.3610   -0.3667 H   0  0  0  0  0  0  0  0  0  0  0  0
   -5.8733    2.9845    0.3336 H   0  0  0  0  0  0  0  0  0  0  0  0
   -5.1699    2.6605   -1.2582 H   0  0  0  0  0  0  0  0  0  0  0  0
   -1.6783   -2.4761   -1.7767 H   0  0  0  0  0  0  0  0  0  0  0  0
   -2.8983   -1.9228   -0.5967 H   0  0  0  0  0  0  0  0  0  0  0  0
   -3.9446   -2.3808   -2.8186 H   0  0  0  0  0  0  0  0  0  0  0  0
   -4.0723   -0.6643   -2.3968 H   0  0  0  0  0  0  0  0  0  0  0  0
   -2.8651   -1.1956   -3.5722 H   0  0  0  0  0  0  0  0  0  0  0  0
  1  2  1  0  0  0  0
  2  3  1  0  0  0  0
  3  4  2  0  0  0  0
  4  5  2  0  0  0  0
  4  6  2  0  0  0  0
  6  7  1  0  0  0  0
  7  8  1  0  0  0  0
  4  9  1  0  0  0  0
  9 10  1  0  0  0  0
 10 11  1  0  0  0  0
 11 12  1  0  0  0  0
 12 13  2  0  0  0  0
 12 14  2  0  0  0  0
 14 15  1  0  0  0  0
 15 16  1  0  0  0  0
 12 17  2  0  0  0  0
 17 18  1  0  0  0  0
 18 19  1  0  0  0  0
  1 20  1  0  0  0  0
  1 21  1  0  0  0  0
  1 22  1  0  0  0  0
  2 23  1  0  0  0  0
  2 24  1  0  0  0  0
  7 25  1  0  0  0  0
  7 26  1  0  0  0  0
  8 27  1  0  0  0  0
  8 28  1  0  0  0  0
  8 29  1  0  0  0  0
 10 30  1  0  0  0  0
 10 31  1  0  0  0  0
 15 32  1  0  0  0  0
 15 33  1  0  0  0  0
 16 34  1  0  0  0  0
 16 35  1  0  0  0  0
 16 36  1  0  0  0  0
 18 37  1  0  0  0  0
 18 38  1  0  0  0  0
 19 39  1  0  0  0  0
 19 40  1  0  0  0  0
 19 41  1  0  0  0  0
M  END
