 xtb: 6.7.1 (edcfbbe)
          04092505213D

 41 40  0     0  0            999 V2000
    2.7951   -0.6167   -2.9109 C   0  0  0  0  0  0  0  0  0  0  0  0
    3.5697   -0.8744   -1.6340 C   0  0  0  0  0  0  0  0  0  0  0  0
    2.6669   -1.1595   -0.5400 O   0  0  0  0  0  0  0  0  0  0  0  0
    2.2404   -0.0524    0.5065 P   0  0  0  0  0  0  0  0  0  0  0  0
    1.9323    1.7742   -0.1681 S   0  0  0  0  0  0  0  0  0  0  0  0
    3.4488   -0.1082    1.5423 O   0  0  0  0  0  0  0  0  0  0  0  0
    3.6557    0.9080    2.5366 C   0  0  0  0  0  0  0  0  0  0  0  0
    2.5574    0.8958    3.5799 C   0  0  0  0  0  0  0  0  0  0  0  0
    0.6806   -1.0915    1.4774 S   0  0  0  0  0  0  0  0  0  0  0  0
   -0.1781   -1.7974    0.0355 C   0  0  0  0  0  0  0  0  0  0  0  0
   -0.5006   -0.6126   -1.3026 S   0  0  0  0  0  0  0  0  0  0  0  0
   -2.3503    0.1566   -0.5804 P   0  0  0  0  0  0  0  0  0  0  0  0
   -3.1254    1.6080   -1.6398 S   0  0  0  0  0  0  0  0  0  0  0  0
   -2.0939    0.4560    0.9537 O   0  0  0  0  0  0  0  0  0  0  0  0
   -1.5473    1.7091    1.4043 C   0  0  0  0  0  0  0  0  0  0  0  0
   -1.5889    1.6986    2.9182 C   0  0  0  0  0  0  0  0  0  0  0  0
   -3.2561   -1.1249   -0.3501 O   0  0  0  0  0  0  0  0  0  0  0  0
   -4.1708   -1.5830   -1.3619 C   0  0  0  0  0  0  0  0  0  0  0  0
   -3.4480   -2.2020   -2.5420 C   0  0  0  0  0  0  0  0  0  0  0  0
    2.1414   -1.4556   -3.1323 H   0  0  0  0  0  0  0  0  0  0  0  0
    2.1831    0.2770   -2.8070 H   0  0  0  0  0  0  0  0  0  0  0  0
    3.4925   -0.4747   -3.7302 H   0  0  0  0  0  0  0  0  0  0  0  0
    4.1929   -0.0146   -1.3735 H   0  0  0  0  0  0  0  0  0  0  0  0
    4.1916   -1.7672   -1.7151 H   0  0  0  0  0  0  0  0  0  0  0  0
    4.6287    0.6653    2.9652 H   0  0  0  0  0  0  0  0  0  0  0  0
    3.7000    1.8804    2.0348 H   0  0  0  0  0  0  0  0  0  0  0  0
    2.7845    1.6190    4.3563 H   0  0  0  0  0  0  0  0  0  0  0  0
    1.6090    1.1628    3.1134 H   0  0  0  0  0  0  0  0  0  0  0  0
    2.4645   -0.0938    4.0197 H   0  0  0  0  0  0  0  0  0  0  0  0
   -1.1218   -2.1869    0.4131 H   0  0  0  0  0  0  0  0  0  0  0  0
    0.4390   -2.5829   -0.3919 H   0  0  0  0  0  0  0  0  0  0  0  0
   -0.5217    1.8123    1.0322 H   0  0  0  0  0  0  0  0  0  0  0  0
   -2.1456    2.5238    0.9839 H   0  0  0  0  0  0  0  0  0  0  0  0
   -1.0214    0.8514    3.2950 H   0  0  0  0  0  0  0  0  0  0  0  0
   -1.1588    2.6218    3.2925 H   0  0  0  0  0  0  0  0  0  0  0  0
   -2.6163    1.6129    3.2590 H   0  0  0  0  0  0  0  0  0  0  0  0
   -4.7944   -2.3111   -0.8414 H   0  0  0  0  0  0  0  0  0  0  0  0
   -4.7816   -0.7355   -1.6884 H   0  0  0  0  0  0  0  0  0  0  0  0
   -2.8491   -1.4447   -3.0475 H   0  0  0  0  0  0  0  0  0  0  0  0
   -2.7953   -3.0059   -2.2120 H   0  0  0  0  0  0  0  0  0  0  0  0
   -4.1779   -2.5965   -3.2415 H   0  0  0  0  0  0  0  0  0  0  0  0
  1  2  1  0  0  0  0
  2  3  1  0  0  0  0
  3  4  2  0  0  0  0
  4  5  2  0  0  0  0
  4  6  2  0  0  0  0
  6  7  1  0  0  0  0
  7  8  1  0  0  0  0
  4  9  1  0  0  0  0
  9 10  1  0  0  0  0
 10 11  1  0  0  0  0
 11 12  1  0  0  0  0
 12 13  2  0  0  0  0
 12 14  2  0  0  0  0
 14 15  1  0  0  0  0
 15 16  1  0  0  0  0
 12 17  2  0  0  0  0
 17 18  1  0  0  0  0
 18 19  1  0  0  0  0
  1 20  1  0  0  0  0
  1 21  1  0  0  0  0
  1 22  1  0  0  0  0
  2 23  1  0  0  0  0
  2 24  1  0  0  0  0
  7 25  1  0  0  0  0
  7 26  1  0  0  0  0
  8 27  1  0  0  0  0
  8 28  1  0  0  0  0
  8 29  1  0  0  0  0
 10 30  1  0  0  0  0
 10 31  1  0  0  0  0
 15 32  1  0  0  0  0
 15 33  1  0  0  0  0
 16 34  1  0  0  0  0
 16 35  1  0  0  0  0
 16 36  1  0  0  0  0
 18 37  1  0  0  0  0
 18 38  1  0  0  0  0
 19 39  1  0  0  0  0
 19 40  1  0  0  0  0
 19 41  1  0  0  0  0
M  END
