 xtb: 6.7.1 (edcfbbe)
          04092505213D

 41 40  0     0  0            999 V2000
    2.0613   -2.3361    2.6033 C   0  0  0  0  0  0  0  0  0  0  0  0
    1.1275   -1.5042    1.7470 C   0  0  0  0  0  0  0  0  0  0  0  0
    1.8747   -0.5257    1.0037 O   0  0  0  0  0  0  0  0  0  0  0  0
    2.2440   -0.7131   -0.5349 P   0  0  0  0  0  0  0  0  0  0  0  0
    2.7242   -2.5289   -1.0820 S   0  0  0  0  0  0  0  0  0  0  0  0
    3.3277    0.4224   -0.7391 O   0  0  0  0  0  0  0  0  0  0  0  0
    4.7406    0.1609   -0.5932 C   0  0  0  0  0  0  0  0  0  0  0  0
    5.1131   -0.1176    0.8472 C   0  0  0  0  0  0  0  0  0  0  0  0
    0.6479    0.1427   -1.6266 S   0  0  0  0  0  0  0  0  0  0  0  0
    0.5006    1.7361   -0.7583 C   0  0  0  0  0  0  0  0  0  0  0  0
   -0.3218    1.6210    0.8533 S   0  0  0  0  0  0  0  0  0  0  0  0
   -2.1103    0.7330    0.1662 P   0  0  0  0  0  0  0  0  0  0  0  0
   -2.7834    1.3824   -1.5617 S   0  0  0  0  0  0  0  0  0  0  0  0
   -3.0673    0.8666    1.4257 O   0  0  0  0  0  0  0  0  0  0  0  0
   -3.6046    2.1285    1.8728 C   0  0  0  0  0  0  0  0  0  0  0  0
   -4.9394    2.4207    1.2149 C   0  0  0  0  0  0  0  0  0  0  0  0
   -1.7539   -0.8102    0.2404 O   0  0  0  0  0  0  0  0  0  0  0  0
   -2.3939   -1.7769   -0.6141 C   0  0  0  0  0  0  0  0  0  0  0  0
   -3.8350   -1.9965   -0.2068 C   0  0  0  0  0  0  0  0  0  0  0  0
    1.4755   -3.0128    3.2168 H   0  0  0  0  0  0  0  0  0  0  0  0
    2.7257   -2.9195    1.9689 H   0  0  0  0  0  0  0  0  0  0  0  0
    2.6539   -1.6897    3.2443 H   0  0  0  0  0  0  0  0  0  0  0  0
    0.4258   -0.9289    2.3553 H   0  0  0  0  0  0  0  0  0  0  0  0
    0.5680   -2.1394    1.0538 H   0  0  0  0  0  0  0  0  0  0  0  0
    5.0021   -0.6877   -1.2329 H   0  0  0  0  0  0  0  0  0  0  0  0
    5.2127    1.0696   -0.9691 H   0  0  0  0  0  0  0  0  0  0  0  0
    4.6608   -1.0538    1.1698 H   0  0  0  0  0  0  0  0  0  0  0  0
    6.1923   -0.1997    0.9300 H   0  0  0  0  0  0  0  0  0  0  0  0
    4.7596    0.6849    1.4894 H   0  0  0  0  0  0  0  0  0  0  0  0
   -0.0930    2.3675   -1.4186 H   0  0  0  0  0  0  0  0  0  0  0  0
    1.4885    2.1537   -0.5863 H   0  0  0  0  0  0  0  0  0  0  0  0
   -3.7121    2.0080    2.9524 H   0  0  0  0  0  0  0  0  0  0  0  0
   -2.8810    2.9219    1.6650 H   0  0  0  0  0  0  0  0  0  0  0  0
   -5.6403    1.6153    1.4158 H   0  0  0  0  0  0  0  0  0  0  0  0
   -5.3373    3.3493    1.6112 H   0  0  0  0  0  0  0  0  0  0  0  0
   -4.8170    2.5186    0.1385 H   0  0  0  0  0  0  0  0  0  0  0  0
   -2.3273   -1.4263   -1.6497 H   0  0  0  0  0  0  0  0  0  0  0  0
   -1.7927   -2.6803   -0.4976 H   0  0  0  0  0  0  0  0  0  0  0  0
   -4.3982   -1.0753   -0.3526 H   0  0  0  0  0  0  0  0  0  0  0  0
   -4.2698   -2.7793   -0.8201 H   0  0  0  0  0  0  0  0  0  0  0  0
   -3.8892   -2.2803    0.8408 H   0  0  0  0  0  0  0  0  0  0  0  0
  1  2  1  0  0  0  0
  2  3  1  0  0  0  0
  3  4  2  0  0  0  0
  4  5  2  0  0  0  0
  4  6  2  0  0  0  0
  6  7  1  0  0  0  0
  7  8  1  0  0  0  0
  4  9  1  0  0  0  0
  9 10  1  0  0  0  0
 10 11  1  0  0  0  0
 11 12  1  0  0  0  0
 12 13  2  0  0  0  0
 12 14  2  0  0  0  0
 14 15  1  0  0  0  0
 15 16  1  0  0  0  0
 12 17  2  0  0  0  0
 17 18  1  0  0  0  0
 18 19  1  0  0  0  0
  1 20  1  0  0  0  0
  1 21  1  0  0  0  0
  1 22  1  0  0  0  0
  2 23  1  0  0  0  0
  2 24  1  0  0  0  0
  7 25  1  0  0  0  0
  7 26  1  0  0  0  0
  8 27  1  0  0  0  0
  8 28  1  0  0  0  0
  8 29  1  0  0  0  0
 10 30  1  0  0  0  0
 10 31  1  0  0  0  0
 15 32  1  0  0  0  0
 15 33  1  0  0  0  0
 16 34  1  0  0  0  0
 16 35  1  0  0  0  0
 16 36  1  0  0  0  0
 18 37  1  0  0  0  0
 18 38  1  0  0  0  0
 19 39  1  0  0  0  0
 19 40  1  0  0  0  0
 19 41  1  0  0  0  0
M  END
