 xtb: 6.7.1 (edcfbbe)
          04092507313D

 38 37  0     0  0            999 V2000
    1.0987   -4.1070   -0.9614 C   0  0  0  0  0  0  0  0  0  0  0  0
    2.3812   -3.5284   -0.3856 C   0  0  0  0  0  0  0  0  0  0  0  0
    2.1582   -2.1731    0.0477 O   0  0  0  0  0  0  0  0  0  0  0  0
    2.4402   -1.1879   -0.7791 C   0  0  0  0  0  0  0  0  0  0  0  0
    2.9440   -1.3171   -1.8718 O   0  0  0  0  0  0  0  0  0  0  0  0
    2.0200    0.1487   -0.1942 C   0  0  0  0  0  0  0  0  0  0  0  0
    0.8746    0.7055   -1.0430 C   0  0  0  0  0  0  0  0  0  0  0  0
    1.2370    0.9198   -2.0525 H   0  0  0  0  0  0  0  0  0  0  0  0
    0.2885    1.9592   -0.4263 C   0  0  0  0  0  0  0  0  0  0  0  0
   -0.8796    2.0380   -0.0985 O   0  0  0  0  0  0  0  0  0  0  0  0
    1.1684    2.9057   -0.2846 O   0  0  0  0  0  0  0  0  0  0  0  0
    0.7390    4.1317    0.3525 C   0  0  0  0  0  0  0  0  0  0  0  0
    1.9437    5.0427    0.4682 C   0  0  0  0  0  0  0  0  0  0  0  0
   -0.4768   -0.4898   -1.2781 S   0  0  0  0  0  0  0  0  0  0  0  0
   -1.4858   -0.3769    0.6096 P   0  0  0  0  0  0  0  0  0  0  0  0
   -0.6047    0.2357    2.2482 S   0  0  0  0  0  0  0  0  0  0  0  0
   -2.9716    0.1384    0.3278 O   0  0  0  0  0  0  0  0  0  0  0  0
   -3.4981    1.4497    0.5237 C   0  0  0  0  0  0  0  0  0  0  0  0
   -1.8031   -1.9249    0.8179 O   0  0  0  0  0  0  0  0  0  0  0  0
   -2.5512   -2.7093   -0.1253 C   0  0  0  0  0  0  0  0  0  0  0  0
    0.8061   -3.5527   -1.8507 H   0  0  0  0  0  0  0  0  0  0  0  0
    1.2567   -5.1474   -1.2242 H   0  0  0  0  0  0  0  0  0  0  0  0
    0.3021   -4.0367   -0.2252 H   0  0  0  0  0  0  0  0  0  0  0  0
    3.1834   -3.5291   -1.1288 H   0  0  0  0  0  0  0  0  0  0  0  0
    2.6909   -4.0628    0.5130 H   0  0  0  0  0  0  0  0  0  0  0  0
    2.8558    0.8478   -0.2354 H   0  0  0  0  0  0  0  0  0  0  0  0
    1.7033    0.0018    0.8398 H   0  0  0  0  0  0  0  0  0  0  0  0
   -0.0514    4.5752   -0.2597 H   0  0  0  0  0  0  0  0  0  0  0  0
    0.3214    3.8751    1.3308 H   0  0  0  0  0  0  0  0  0  0  0  0
    1.6405    5.9759    0.9307 H   0  0  0  0  0  0  0  0  0  0  0  0
    2.7095    4.5748    1.0789 H   0  0  0  0  0  0  0  0  0  0  0  0
    2.3534    5.2466   -0.5163 H   0  0  0  0  0  0  0  0  0  0  0  0
   -4.5597    1.3099    0.7167 H   0  0  0  0  0  0  0  0  0  0  0  0
   -3.3403    2.0475   -0.3717 H   0  0  0  0  0  0  0  0  0  0  0  0
   -3.0137    1.9296    1.3738 H   0  0  0  0  0  0  0  0  0  0  0  0
   -2.5516   -3.7186    0.2788 H   0  0  0  0  0  0  0  0  0  0  0  0
   -2.0653   -2.6842   -1.1011 H   0  0  0  0  0  0  0  0  0  0  0  0
   -3.5669   -2.3266   -0.2052 H   0  0  0  0  0  0  0  0  0  0  0  0
  1  2  1  0  0  0  0
  2  3  1  0  0  0  0
  3  4  1  0  0  0  0
  4  5  2  0  0  0  0
  4  6  1  0  0  0  0
  6  7  1  0  0  0  0
  7  8  1  0  0  0  0
  7  9  1  0  0  0  0
  9 10  2  0  0  0  0
  9 11  4  0  0  0  0
 11 12  1  0  0  0  0
 12 13  1  0  0  0  0
  7 14  1  0  0  0  0
 14 15  1  0  0  0  0
 15 16  2  0  0  0  0
 15 17  2  0  0  0  0
 17 18  1  0  0  0  0
 15 19  1  0  0  0  0
 19 20  1  0  0  0  0
  1 21  1  0  0  0  0
  1 22  1  0  0  0  0
  1 23  1  0  0  0  0
  2 24  1  0  0  0  0
  2 25  1  0  0  0  0
  6 26  1  0  0  0  0
  6 27  1  0  0  0  0
 12 28  1  0  0  0  0
 12 29  1  0  0  0  0
 13 30  1  0  0  0  0
 13 31  1  0  0  0  0
 13 32  1  0  0  0  0
 18 33  1  0  0  0  0
 18 34  1  0  0  0  0
 18 35  1  0  0  0  0
 20 36  1  0  0  0  0
 20 37  1  0  0  0  0
 20 38  1  0  0  0  0
M  END
