 xtb: 6.7.1 (edcfbbe)
          04092507313D

 38 37  0     0  0            999 V2000
    5.9734   -1.3310   -0.2359 C   0  0  0  0  0  0  0  0  0  0  0  0
    4.9178   -0.8670   -1.2203 C   0  0  0  0  0  0  0  0  0  0  0  0
    3.6574   -1.4570   -0.8427 O   0  0  0  0  0  0  0  0  0  0  0  0
    2.5569   -0.9410   -1.3417 C   0  0  0  0  0  0  0  0  0  0  0  0
    2.5244    0.0044   -2.0994 O   0  0  0  0  0  0  0  0  0  0  0  0
    1.3237   -1.6864   -0.8608 C   0  0  0  0  0  0  0  0  0  0  0  0
    0.2122   -0.6860   -0.5802 C   0  0  0  0  0  0  0  0  0  0  0  0
    0.1082   -0.0085   -1.4388 H   0  0  0  0  0  0  0  0  0  0  0  0
    0.4765    0.1746    0.6345 C   0  0  0  0  0  0  0  0  0  0  0  0
   -0.4317    0.5714    1.3437 O   0  0  0  0  0  0  0  0  0  0  0  0
    1.7334    0.4396    0.8238 O   0  0  0  0  0  0  0  0  0  0  0  0
    2.0943    1.2930    1.9371 C   0  0  0  0  0  0  0  0  0  0  0  0
    3.5977    1.2212    2.1080 C   0  0  0  0  0  0  0  0  0  0  0  0
   -1.4036   -1.5007   -0.3079 S   0  0  0  0  0  0  0  0  0  0  0  0
   -2.5555    0.2363    0.0133 P   0  0  0  0  0  0  0  0  0  0  0  0
   -2.0471    1.9758   -0.7597 S   0  0  0  0  0  0  0  0  0  0  0  0
   -3.8060   -0.4137   -0.7550 O   0  0  0  0  0  0  0  0  0  0  0  0
   -5.0326    0.3049   -0.9179 C   0  0  0  0  0  0  0  0  0  0  0  0
   -3.1850    0.2813    1.4810 O   0  0  0  0  0  0  0  0  0  0  0  0
   -2.8401    1.1896    2.5268 C   0  0  0  0  0  0  0  0  0  0  0  0
    6.0264   -2.4153   -0.2349 H   0  0  0  0  0  0  0  0  0  0  0  0
    6.9366   -0.9255   -0.5271 H   0  0  0  0  0  0  0  0  0  0  0  0
    5.7313   -0.9897    0.7659 H   0  0  0  0  0  0  0  0  0  0  0  0
    5.1504   -1.1902   -2.2394 H   0  0  0  0  0  0  0  0  0  0  0  0
    4.8027    0.2211   -1.2218 H   0  0  0  0  0  0  0  0  0  0  0  0
    1.5700   -2.2743    0.0212 H   0  0  0  0  0  0  0  0  0  0  0  0
    0.9976   -2.3596   -1.6554 H   0  0  0  0  0  0  0  0  0  0  0  0
    1.7568    2.3071    1.7051 H   0  0  0  0  0  0  0  0  0  0  0  0
    1.5613    0.9400    2.8244 H   0  0  0  0  0  0  0  0  0  0  0  0
    3.8936    1.8608    2.9327 H   0  0  0  0  0  0  0  0  0  0  0  0
    3.9003    0.1998    2.3192 H   0  0  0  0  0  0  0  0  0  0  0  0
    4.0912    1.5573    1.2008 H   0  0  0  0  0  0  0  0  0  0  0  0
   -5.6031   -0.2530   -1.6561 H   0  0  0  0  0  0  0  0  0  0  0  0
   -4.8290    1.3158   -1.2778 H   0  0  0  0  0  0  0  0  0  0  0  0
   -5.5688    0.3498    0.0294 H   0  0  0  0  0  0  0  0  0  0  0  0
   -3.7664    1.3988    3.0577 H   0  0  0  0  0  0  0  0  0  0  0  0
   -2.4226    2.1059    2.1074 H   0  0  0  0  0  0  0  0  0  0  0  0
   -2.1113    0.7224    3.1851 H   0  0  0  0  0  0  0  0  0  0  0  0
  1  2  1  0  0  0  0
  2  3  1  0  0  0  0
  3  4  4  0  0  0  0
  4  5  2  0  0  0  0
  4  6  1  0  0  0  0
  6  7  1  0  0  0  0
  7  8  1  0  0  0  0
  7  9  1  0  0  0  0
  9 10  2  0  0  0  0
  9 11  4  0  0  0  0
 11 12  1  0  0  0  0
 12 13  1  0  0  0  0
  7 14  1  0  0  0  0
 14 15  1  0  0  0  0
 15 16  2  0  0  0  0
 15 17  1  0  0  0  0
 17 18  1  0  0  0  0
 15 19  2  0  0  0  0
 19 20  1  0  0  0  0
  1 21  1  0  0  0  0
  1 22  1  0  0  0  0
  1 23  1  0  0  0  0
  2 24  1  0  0  0  0
  2 25  1  0  0  0  0
  6 26  1  0  0  0  0
  6 27  1  0  0  0  0
 12 28  1  0  0  0  0
 12 29  1  0  0  0  0
 13 30  1  0  0  0  0
 13 31  1  0  0  0  0
 13 32  1  0  0  0  0
 18 33  1  0  0  0  0
 18 34  1  0  0  0  0
 18 35  1  0  0  0  0
 20 36  1  0  0  0  0
 20 37  1  0  0  0  0
 20 38  1  0  0  0  0
M  END
