 xtb: 6.7.1 (edcfbbe)
          04092505213D

 41 40  0     0  0            999 V2000
    4.1400   -1.4079   -2.2537 C   0  0  0  0  0  0  0  0  0  0  0  0
    4.3203   -1.0281   -0.7978 C   0  0  0  0  0  0  0  0  0  0  0  0
    3.0615   -0.7647   -0.1552 O   0  0  0  0  0  0  0  0  0  0  0  0
    2.2326    0.5728   -0.4427 P   0  0  0  0  0  0  0  0  0  0  0  0
    3.3462    2.1617   -0.6953 S   0  0  0  0  0  0  0  0  0  0  0  0
    1.2394    0.5749    0.7938 O   0  0  0  0  0  0  0  0  0  0  0  0
    1.6730    1.0482    2.0888 C   0  0  0  0  0  0  0  0  0  0  0  0
    1.1174    2.4338    2.3429 C   0  0  0  0  0  0  0  0  0  0  0  0
    0.8733    0.1201   -1.9719 S   0  0  0  0  0  0  0  0  0  0  0  0
    0.1928   -1.4694   -1.3525 C   0  0  0  0  0  0  0  0  0  0  0  0
   -1.6089   -1.4484   -1.3143 S   0  0  0  0  0  0  0  0  0  0  0  0
   -1.8633   -0.5328    0.5945 P   0  0  0  0  0  0  0  0  0  0  0  0
   -0.8821   -1.3822    2.0561 S   0  0  0  0  0  0  0  0  0  0  0  0
   -3.4440   -0.5488    0.7463 O   0  0  0  0  0  0  0  0  0  0  0  0
   -4.1544   -1.7839    0.9710 C   0  0  0  0  0  0  0  0  0  0  0  0
   -5.5608   -1.4373    1.4150 C   0  0  0  0  0  0  0  0  0  0  0  0
   -1.5456    1.0003    0.4271 O   0  0  0  0  0  0  0  0  0  0  0  0
   -2.1762    1.8416   -0.5699 C   0  0  0  0  0  0  0  0  0  0  0  0
   -3.3444    2.5979    0.0270 C   0  0  0  0  0  0  0  0  0  0  0  0
    5.1067   -1.6546   -2.6806 H   0  0  0  0  0  0  0  0  0  0  0  0
    3.4789   -2.2659   -2.3441 H   0  0  0  0  0  0  0  0  0  0  0  0
    3.7140   -0.5707   -2.8061 H   0  0  0  0  0  0  0  0  0  0  0  0
    4.9472   -0.1349   -0.7080 H   0  0  0  0  0  0  0  0  0  0  0  0
    4.7495   -1.8443   -0.2152 H   0  0  0  0  0  0  0  0  0  0  0  0
    1.2796    0.3199    2.8010 H   0  0  0  0  0  0  0  0  0  0  0  0
    2.7660    1.0451    2.1249 H   0  0  0  0  0  0  0  0  0  0  0  0
    0.0346    2.4140    2.2487 H   0  0  0  0  0  0  0  0  0  0  0  0
    1.3881    2.7507    3.3449 H   0  0  0  0  0  0  0  0  0  0  0  0
    1.5246    3.1383    1.6203 H   0  0  0  0  0  0  0  0  0  0  0  0
    0.5758   -1.6608   -0.3499 H   0  0  0  0  0  0  0  0  0  0  0  0
    0.4794   -2.2494   -2.0523 H   0  0  0  0  0  0  0  0  0  0  0  0
   -4.1572   -2.3500    0.0359 H   0  0  0  0  0  0  0  0  0  0  0  0
   -3.6207   -2.3575    1.7357 H   0  0  0  0  0  0  0  0  0  0  0  0
   -5.5309   -0.8589    2.3342 H   0  0  0  0  0  0  0  0  0  0  0  0
   -6.0614   -0.8552    0.6468 H   0  0  0  0  0  0  0  0  0  0  0  0
   -6.1147   -2.3541    1.5876 H   0  0  0  0  0  0  0  0  0  0  0  0
   -1.3838    2.5183   -0.8981 H   0  0  0  0  0  0  0  0  0  0  0  0
   -2.4953    1.2202   -1.4115 H   0  0  0  0  0  0  0  0  0  0  0  0
   -4.1099    1.9029    0.3613 H   0  0  0  0  0  0  0  0  0  0  0  0
   -3.0135    3.1911    0.8751 H   0  0  0  0  0  0  0  0  0  0  0  0
   -3.7610    3.2564   -0.7288 H   0  0  0  0  0  0  0  0  0  0  0  0
  1  2  1  0  0  0  0
  2  3  1  0  0  0  0
  3  4  2  0  0  0  0
  4  5  2  0  0  0  0
  4  6  1  0  0  0  0
  6  7  1  0  0  0  0
  7  8  1  0  0  0  0
  4  9  1  0  0  0  0
  9 10  1  0  0  0  0
 10 11  1  0  0  0  0
 11 12  1  0  0  0  0
 12 13  2  0  0  0  0
 12 14  2  0  0  0  0
 14 15  1  0  0  0  0
 15 16  1  0  0  0  0
 12 17  2  0  0  0  0
 17 18  1  0  0  0  0
 18 19  1  0  0  0  0
  1 20  1  0  0  0  0
  1 21  1  0  0  0  0
  1 22  1  0  0  0  0
  2 23  1  0  0  0  0
  2 24  1  0  0  0  0
  7 25  1  0  0  0  0
  7 26  1  0  0  0  0
  8 27  1  0  0  0  0
  8 28  1  0  0  0  0
  8 29  1  0  0  0  0
 10 30  1  0  0  0  0
 10 31  1  0  0  0  0
 15 32  1  0  0  0  0
 15 33  1  0  0  0  0
 16 34  1  0  0  0  0
 16 35  1  0  0  0  0
 16 36  1  0  0  0  0
 18 37  1  0  0  0  0
 18 38  1  0  0  0  0
 19 39  1  0  0  0  0
 19 40  1  0  0  0  0
 19 41  1  0  0  0  0
M  END
