 xtb: 6.7.1 (edcfbbe)
          04092505203D

 41 40  0     0  0            999 V2000
    3.1849   -2.7616   -1.5823 C   0  0  0  0  0  0  0  0  0  0  0  0
    3.8254   -1.4555   -1.9984 C   0  0  0  0  0  0  0  0  0  0  0  0
    3.8889   -0.4813   -0.9277 O   0  0  0  0  0  0  0  0  0  0  0  0
    2.7060    0.0187   -0.0220 P   0  0  0  0  0  0  0  0  0  0  0  0
    3.1706    1.7449    0.7750 S   0  0  0  0  0  0  0  0  0  0  0  0
    2.5224   -1.2139    0.9695 O   0  0  0  0  0  0  0  0  0  0  0  0
    1.4644   -1.3939    1.9239 C   0  0  0  0  0  0  0  0  0  0  0  0
    1.5666   -0.4413    3.0984 C   0  0  0  0  0  0  0  0  0  0  0  0
    0.9754    0.0129   -1.2850 S   0  0  0  0  0  0  0  0  0  0  0  0
    0.2416    1.5725   -0.7472 C   0  0  0  0  0  0  0  0  0  0  0  0
   -0.7258    1.4182    0.7804 S   0  0  0  0  0  0  0  0  0  0  0  0
   -2.2517    0.2081   -0.0401 P   0  0  0  0  0  0  0  0  0  0  0  0
   -2.7960    0.5749   -1.8920 S   0  0  0  0  0  0  0  0  0  0  0  0
   -3.4206    0.2589    1.0339 O   0  0  0  0  0  0  0  0  0  0  0  0
   -4.4778    1.2315    0.9765 C   0  0  0  0  0  0  0  0  0  0  0  0
   -3.9770    2.6364    1.2432 C   0  0  0  0  0  0  0  0  0  0  0  0
   -1.6252   -1.2228    0.2336 O   0  0  0  0  0  0  0  0  0  0  0  0
   -2.0414   -2.3960   -0.4962 C   0  0  0  0  0  0  0  0  0  0  0  0
   -3.4639   -2.7912   -0.1609 C   0  0  0  0  0  0  0  0  0  0  0  0
    2.1303   -2.6090   -1.3601 H   0  0  0  0  0  0  0  0  0  0  0  0
    3.2720   -3.4722   -2.3985 H   0  0  0  0  0  0  0  0  0  0  0  0
    3.6807   -3.1607   -0.7015 H   0  0  0  0  0  0  0  0  0  0  0  0
    3.2805   -1.0033   -2.8311 H   0  0  0  0  0  0  0  0  0  0  0  0
    4.8733   -1.5896   -2.2711 H   0  0  0  0  0  0  0  0  0  0  0  0
    0.5012   -1.2819    1.4168 H   0  0  0  0  0  0  0  0  0  0  0  0
    1.5865   -2.4296    2.2476 H   0  0  0  0  0  0  0  0  0  0  0  0
    0.8128   -0.7017    3.8344 H   0  0  0  0  0  0  0  0  0  0  0  0
    2.5526   -0.5083    3.5510 H   0  0  0  0  0  0  0  0  0  0  0  0
    1.4022    0.5853    2.7764 H   0  0  0  0  0  0  0  0  0  0  0  0
   -0.4095    1.9056   -1.5547 H   0  0  0  0  0  0  0  0  0  0  0  0
    1.0338    2.2936   -0.5408 H   0  0  0  0  0  0  0  0  0  0  0  0
   -4.9478    1.1738   -0.0107 H   0  0  0  0  0  0  0  0  0  0  0  0
   -5.1800    0.9016    1.7431 H   0  0  0  0  0  0  0  0  0  0  0  0
   -3.3256    2.9605    0.4323 H   0  0  0  0  0  0  0  0  0  0  0  0
   -4.8222    3.3144    1.3059 H   0  0  0  0  0  0  0  0  0  0  0  0
   -3.4172    2.6687    2.1746 H   0  0  0  0  0  0  0  0  0  0  0  0
   -1.9347   -2.1917   -1.5663 H   0  0  0  0  0  0  0  0  0  0  0  0
   -1.3264   -3.1616   -0.1921 H   0  0  0  0  0  0  0  0  0  0  0  0
   -3.5810   -2.8965    0.9144 H   0  0  0  0  0  0  0  0  0  0  0  0
   -4.1541   -2.0273   -0.5171 H   0  0  0  0  0  0  0  0  0  0  0  0
   -3.7002   -3.7330   -0.6462 H   0  0  0  0  0  0  0  0  0  0  0  0
  1  2  1  0  0  0  0
  2  3  1  0  0  0  0
  3  4  2  0  0  0  0
  4  5  2  0  0  0  0
  4  6  2  0  0  0  0
  6  7  1  0  0  0  0
  7  8  1  0  0  0  0
  4  9  1  0  0  0  0
  9 10  1  0  0  0  0
 10 11  1  0  0  0  0
 11 12  1  0  0  0  0
 12 13  2  0  0  0  0
 12 14  2  0  0  0  0
 14 15  1  0  0  0  0
 15 16  1  0  0  0  0
 12 17  2  0  0  0  0
 17 18  1  0  0  0  0
 18 19  1  0  0  0  0
  1 20  1  0  0  0  0
  1 21  1  0  0  0  0
  1 22  1  0  0  0  0
  2 23  1  0  0  0  0
  2 24  1  0  0  0  0
  7 25  1  0  0  0  0
  7 26  1  0  0  0  0
  8 27  1  0  0  0  0
  8 28  1  0  0  0  0
  8 29  1  0  0  0  0
 10 30  1  0  0  0  0
 10 31  1  0  0  0  0
 15 32  1  0  0  0  0
 15 33  1  0  0  0  0
 16 34  1  0  0  0  0
 16 35  1  0  0  0  0
 16 36  1  0  0  0  0
 18 37  1  0  0  0  0
 18 38  1  0  0  0  0
 19 39  1  0  0  0  0
 19 40  1  0  0  0  0
 19 41  1  0  0  0  0
M  END
