 xtb: 6.7.1 (edcfbbe)
          04032519583D

  7  7  0     0  0            999 V2000
   -0.2022    0.0020   -0.0066 C   0  0  0  0  0  0  0  0  0  0  0  0
    1.3200   -0.0161   -0.2396 N   0  0  0  0  0  0  0  0  0  0  0  0
    1.8266   -1.0944   -0.2944 O   0  0  0  0  0  0  0  0  0  0  0  0
    1.8518    1.0501   -0.2931 O   0  0  0  0  0  0  0  0  0  0  0  0
   -0.8635    1.4649   -0.7111 Cl  0  0  0  0  0  0  0  0  0  0  0  0
   -0.8965   -1.4536   -0.6937 Cl  0  0  0  0  0  0  0  0  0  0  0  0
   -0.3530    0.0143    1.7668 Cl  0  0  0  0  0  0  0  0  0  0  0  0
  1  2  1  0  0  0  0
  2  3  2  0  0  0  0
  2  4  2  0  0  0  0
  3  4  1  0  0  0  0
  1  5  1  0  0  0  0
  1  6  1  0  0  0  0
  1  7  1  0  0  0  0
M  END
