 xtb: 6.7.1 (edcfbbe)
          04092507313D

 38 37  0     0  0            999 V2000
    5.0632   -2.4481   -0.6191 C   0  0  0  0  0  0  0  0  0  0  0  0
    3.7014   -2.9583   -1.0622 C   0  0  0  0  0  0  0  0  0  0  0  0
    2.9486   -1.9134   -1.7106 O   0  0  0  0  0  0  0  0  0  0  0  0
    2.2110   -1.1150   -0.9760 C   0  0  0  0  0  0  0  0  0  0  0  0
    2.0787   -1.2022    0.2295 O   0  0  0  0  0  0  0  0  0  0  0  0
    1.5292   -0.0467   -1.8046 C   0  0  0  0  0  0  0  0  0  0  0  0
    0.3309    0.4929   -1.0385 C   0  0  0  0  0  0  0  0  0  0  0  0
   -0.0670    1.3978   -1.5071 H   0  0  0  0  0  0  0  0  0  0  0  0
    0.6878    0.8247    0.3987 C   0  0  0  0  0  0  0  0  0  0  0  0
   -0.0145    0.4962    1.3371 O   0  0  0  0  0  0  0  0  0  0  0  0
    1.7463    1.5824    0.4864 O   0  0  0  0  0  0  0  0  0  0  0  0
    2.1516    2.0076    1.8046 C   0  0  0  0  0  0  0  0  0  0  0  0
    3.2558    3.0331    1.6466 C   0  0  0  0  0  0  0  0  0  0  0  0
   -1.0099   -0.7456   -0.9899 S   0  0  0  0  0  0  0  0  0  0  0  0
   -2.3547    0.2661    0.3025 P   0  0  0  0  0  0  0  0  0  0  0  0
   -2.3089    2.2230    0.3006 S   0  0  0  0  0  0  0  0  0  0  0  0
   -3.7440   -0.2904   -0.3001 O   0  0  0  0  0  0  0  0  0  0  0  0
   -4.2149    0.1115   -1.5887 C   0  0  0  0  0  0  0  0  0  0  0  0
   -2.4664   -0.4072    1.7292 O   0  0  0  0  0  0  0  0  0  0  0  0
   -2.2853   -1.8186    1.9373 C   0  0  0  0  0  0  0  0  0  0  0  0
    4.9463   -1.6790    0.1411 H   0  0  0  0  0  0  0  0  0  0  0  0
    5.6354   -3.2699   -0.2015 H   0  0  0  0  0  0  0  0  0  0  0  0
    5.6002   -2.0313   -1.4664 H   0  0  0  0  0  0  0  0  0  0  0  0
    3.1256   -3.3255   -0.2081 H   0  0  0  0  0  0  0  0  0  0  0  0
    3.7951   -3.7354   -1.8206 H   0  0  0  0  0  0  0  0  0  0  0  0
    1.2299   -0.4609   -2.7664 H   0  0  0  0  0  0  0  0  0  0  0  0
    2.2451    0.7609   -1.9721 H   0  0  0  0  0  0  0  0  0  0  0  0
    1.2750    2.4202    2.3147 H   0  0  0  0  0  0  0  0  0  0  0  0
    2.4861    1.1206    2.3516 H   0  0  0  0  0  0  0  0  0  0  0  0
    4.1026    2.5935    1.1287 H   0  0  0  0  0  0  0  0  0  0  0  0
    2.8938    3.8833    1.0762 H   0  0  0  0  0  0  0  0  0  0  0  0
    3.5709    3.3694    2.6286 H   0  0  0  0  0  0  0  0  0  0  0  0
   -4.1550    1.1971   -1.6851 H   0  0  0  0  0  0  0  0  0  0  0  0
   -5.2495   -0.2177   -1.6385 H   0  0  0  0  0  0  0  0  0  0  0  0
   -3.6191   -0.3660   -2.3666 H   0  0  0  0  0  0  0  0  0  0  0  0
   -1.2288   -2.0660    1.8269 H   0  0  0  0  0  0  0  0  0  0  0  0
   -2.8869   -2.3869    1.2289 H   0  0  0  0  0  0  0  0  0  0  0  0
   -2.6133   -1.9986    2.9577 H   0  0  0  0  0  0  0  0  0  0  0  0
  1  2  1  0  0  0  0
  2  3  1  0  0  0  0
  3  4  4  0  0  0  0
  4  5  2  0  0  0  0
  4  6  1  0  0  0  0
  6  7  1  0  0  0  0
  7  8  1  0  0  0  0
  7  9  1  0  0  0  0
  9 10  2  0  0  0  0
  9 11  4  0  0  0  0
 11 12  1  0  0  0  0
 12 13  1  0  0  0  0
  7 14  1  0  0  0  0
 14 15  1  0  0  0  0
 15 16  2  0  0  0  0
 15 17  1  0  0  0  0
 17 18  1  0  0  0  0
 15 19  2  0  0  0  0
 19 20  1  0  0  0  0
  1 21  1  0  0  0  0
  1 22  1  0  0  0  0
  1 23  1  0  0  0  0
  2 24  1  0  0  0  0
  2 25  1  0  0  0  0
  6 26  1  0  0  0  0
  6 27  1  0  0  0  0
 12 28  1  0  0  0  0
 12 29  1  0  0  0  0
 13 30  1  0  0  0  0
 13 31  1  0  0  0  0
 13 32  1  0  0  0  0
 18 33  1  0  0  0  0
 18 34  1  0  0  0  0
 18 35  1  0  0  0  0
 20 36  1  0  0  0  0
 20 37  1  0  0  0  0
 20 38  1  0  0  0  0
M  END
