 xtb: 6.7.1 (edcfbbe)
          04092505203D

 41 40  0     0  0            999 V2000
    4.2260   -1.3509   -2.4825 C   0  0  0  0  0  0  0  0  0  0  0  0
    4.2395    0.0663   -1.9482 C   0  0  0  0  0  0  0  0  0  0  0  0
    3.6217    0.1607   -0.6524 O   0  0  0  0  0  0  0  0  0  0  0  0
    2.0600   -0.0395   -0.4347 P   0  0  0  0  0  0  0  0  0  0  0  0
    0.9649    0.7435   -1.8700 S   0  0  0  0  0  0  0  0  0  0  0  0
    1.8764    0.5272    1.0300 O   0  0  0  0  0  0  0  0  0  0  0  0
    2.1837    1.9003    1.3683 C   0  0  0  0  0  0  0  0  0  0  0  0
    1.8833    2.0834    2.8400 C   0  0  0  0  0  0  0  0  0  0  0  0
    1.7860   -2.0865   -0.0659 S   0  0  0  0  0  0  0  0  0  0  0  0
    0.0224   -2.2066   -0.4714 C   0  0  0  0  0  0  0  0  0  0  0  0
   -1.0756   -1.7634    0.9115 S   0  0  0  0  0  0  0  0  0  0  0  0
   -1.9938    0.0515    0.3159 P   0  0  0  0  0  0  0  0  0  0  0  0
   -1.2261    1.8015    0.7707 S   0  0  0  0  0  0  0  0  0  0  0  0
   -3.4582   -0.1270    0.9167 O   0  0  0  0  0  0  0  0  0  0  0  0
   -3.8079    0.3264    2.2319 C   0  0  0  0  0  0  0  0  0  0  0  0
   -3.1561   -0.5199    3.3065 C   0  0  0  0  0  0  0  0  0  0  0  0
   -2.2252   -0.2727   -1.2152 O   0  0  0  0  0  0  0  0  0  0  0  0
   -2.5534    0.7474   -2.1798 C   0  0  0  0  0  0  0  0  0  0  0  0
   -3.9164    1.3518   -1.9225 C   0  0  0  0  0  0  0  0  0  0  0  0
    4.6428   -2.0350   -1.7479 H   0  0  0  0  0  0  0  0  0  0  0  0
    3.2044   -1.6551   -2.7053 H   0  0  0  0  0  0  0  0  0  0  0  0
    4.8138   -1.3954   -3.3937 H   0  0  0  0  0  0  0  0  0  0  0  0
    3.7140    0.7418   -2.6311 H   0  0  0  0  0  0  0  0  0  0  0  0
    5.2556    0.4253   -1.7791 H   0  0  0  0  0  0  0  0  0  0  0  0
    3.2377    2.0780    1.1430 H   0  0  0  0  0  0  0  0  0  0  0  0
    1.5615    2.5570    0.7518 H   0  0  0  0  0  0  0  0  0  0  0  0
    2.4412    1.3587    3.4256 H   0  0  0  0  0  0  0  0  0  0  0  0
    2.1644    3.0883    3.1368 H   0  0  0  0  0  0  0  0  0  0  0  0
    0.8201    1.9441    3.0164 H   0  0  0  0  0  0  0  0  0  0  0  0
   -0.1672   -3.2526   -0.6959 H   0  0  0  0  0  0  0  0  0  0  0  0
   -0.1968   -1.5671   -1.3270 H   0  0  0  0  0  0  0  0  0  0  0  0
   -3.5051    1.3748    2.3300 H   0  0  0  0  0  0  0  0  0  0  0  0
   -4.8955    0.2491    2.2598 H   0  0  0  0  0  0  0  0  0  0  0  0
   -2.0723   -0.4114    3.2535 H   0  0  0  0  0  0  0  0  0  0  0  0
   -3.4971   -0.1931    4.2835 H   0  0  0  0  0  0  0  0  0  0  0  0
   -3.4050   -1.5683    3.1652 H   0  0  0  0  0  0  0  0  0  0  0  0
   -1.7708    1.5131   -2.1554 H   0  0  0  0  0  0  0  0  0  0  0  0
   -2.5125    0.2215   -3.1347 H   0  0  0  0  0  0  0  0  0  0  0  0
   -4.6670    0.5684   -1.8585 H   0  0  0  0  0  0  0  0  0  0  0  0
   -3.9046    1.9080   -0.9859 H   0  0  0  0  0  0  0  0  0  0  0  0
   -4.1649    2.0303   -2.7324 H   0  0  0  0  0  0  0  0  0  0  0  0
  1  2  1  0  0  0  0
  2  3  1  0  0  0  0
  3  4  2  0  0  0  0
  4  5  2  0  0  0  0
  4  6  2  0  0  0  0
  6  7  1  0  0  0  0
  7  8  1  0  0  0  0
  4  9  1  0  0  0  0
  9 10  1  0  0  0  0
 10 11  1  0  0  0  0
 11 12  1  0  0  0  0
 12 13  2  0  0  0  0
 12 14  2  0  0  0  0
 14 15  1  0  0  0  0
 15 16  1  0  0  0  0
 12 17  2  0  0  0  0
 17 18  1  0  0  0  0
 18 19  1  0  0  0  0
  1 20  1  0  0  0  0
  1 21  1  0  0  0  0
  1 22  1  0  0  0  0
  2 23  1  0  0  0  0
  2 24  1  0  0  0  0
  7 25  1  0  0  0  0
  7 26  1  0  0  0  0
  8 27  1  0  0  0  0
  8 28  1  0  0  0  0
  8 29  1  0  0  0  0
 10 30  1  0  0  0  0
 10 31  1  0  0  0  0
 15 32  1  0  0  0  0
 15 33  1  0  0  0  0
 16 34  1  0  0  0  0
 16 35  1  0  0  0  0
 16 36  1  0  0  0  0
 18 37  1  0  0  0  0
 18 38  1  0  0  0  0
 19 39  1  0  0  0  0
 19 40  1  0  0  0  0
 19 41  1  0  0  0  0
M  END
