 xtb: 6.7.1 (edcfbbe)
          04092505203D

 41 40  0     0  0            999 V2000
    2.5947   -2.9647   -1.4172 C   0  0  0  0  0  0  0  0  0  0  0  0
    3.4282   -1.7782   -1.8541 C   0  0  0  0  0  0  0  0  0  0  0  0
    3.5871   -0.7932   -0.8074 O   0  0  0  0  0  0  0  0  0  0  0  0
    2.4250    0.0160   -0.0894 P   0  0  0  0  0  0  0  0  0  0  0  0
    3.1727    1.5977    0.7789 S   0  0  0  0  0  0  0  0  0  0  0  0
    1.6776   -1.0108    0.8821 O   0  0  0  0  0  0  0  0  0  0  0  0
    1.9629   -1.1200    2.2910 C   0  0  0  0  0  0  0  0  0  0  0  0
    0.9471   -0.3533    3.1142 C   0  0  0  0  0  0  0  0  0  0  0  0
    0.9766    0.2811   -1.6042 S   0  0  0  0  0  0  0  0  0  0  0  0
    0.2524    1.8134   -0.9666 C   0  0  0  0  0  0  0  0  0  0  0  0
   -0.5905    1.6099    0.6237 S   0  0  0  0  0  0  0  0  0  0  0  0
   -2.0312    0.2106   -0.0327 P   0  0  0  0  0  0  0  0  0  0  0  0
   -2.7463    0.4422   -1.8475 S   0  0  0  0  0  0  0  0  0  0  0  0
   -3.1168    0.1994    1.1279 O   0  0  0  0  0  0  0  0  0  0  0  0
   -4.2649    1.0645    1.1225 C   0  0  0  0  0  0  0  0  0  0  0  0
   -3.8876    2.5166    1.3345 C   0  0  0  0  0  0  0  0  0  0  0  0
   -1.2557   -1.1390    0.2595 O   0  0  0  0  0  0  0  0  0  0  0  0
   -1.5598   -2.3669   -0.4302 C   0  0  0  0  0  0  0  0  0  0  0  0
   -2.9287   -2.8972   -0.0591 C   0  0  0  0  0  0  0  0  0  0  0  0
    3.0276   -3.4260   -0.5332 H   0  0  0  0  0  0  0  0  0  0  0  0
    1.5802   -2.6429   -1.1901 H   0  0  0  0  0  0  0  0  0  0  0  0
    2.5632   -3.6916   -2.2229 H   0  0  0  0  0  0  0  0  0  0  0  0
    2.9795   -1.2863   -2.7211 H   0  0  0  0  0  0  0  0  0  0  0  0
    4.4552   -2.0674   -2.0833 H   0  0  0  0  0  0  0  0  0  0  0  0
    1.9144   -2.1905    2.4986 H   0  0  0  0  0  0  0  0  0  0  0  0
    2.9751   -0.7518    2.4836 H   0  0  0  0  0  0  0  0  0  0  0  0
    1.0584    0.7162    2.9488 H   0  0  0  0  0  0  0  0  0  0  0  0
   -0.0609   -0.6470    2.8308 H   0  0  0  0  0  0  0  0  0  0  0  0
    1.1046   -0.5684    4.1662 H   0  0  0  0  0  0  0  0  0  0  0  0
   -0.4590    2.1456   -1.7221 H   0  0  0  0  0  0  0  0  0  0  0  0
    1.0389    2.5499   -0.8049 H   0  0  0  0  0  0  0  0  0  0  0  0
   -4.7876    0.9392    0.1686 H   0  0  0  0  0  0  0  0  0  0  0  0
   -4.8827    0.6858    1.9379 H   0  0  0  0  0  0  0  0  0  0  0  0
   -3.3265    2.8858    0.4771 H   0  0  0  0  0  0  0  0  0  0  0  0
   -4.7894    3.1099    1.4463 H   0  0  0  0  0  0  0  0  0  0  0  0
   -3.2725    2.6214    2.2248 H   0  0  0  0  0  0  0  0  0  0  0  0
   -1.4925   -2.1848   -1.5079 H   0  0  0  0  0  0  0  0  0  0  0  0
   -0.7647   -3.0458   -0.1176 H   0  0  0  0  0  0  0  0  0  0  0  0
   -3.0795   -3.8648   -0.5273 H   0  0  0  0  0  0  0  0  0  0  0  0
   -3.0142   -2.9976    1.0198 H   0  0  0  0  0  0  0  0  0  0  0  0
   -3.6977   -2.2102   -0.4109 H   0  0  0  0  0  0  0  0  0  0  0  0
  1  2  1  0  0  0  0
  2  3  1  0  0  0  0
  3  4  2  0  0  0  0
  4  5  2  0  0  0  0
  4  6  1  0  0  0  0
  6  7  1  0  0  0  0
  7  8  1  0  0  0  0
  4  9  1  0  0  0  0
  9 10  1  0  0  0  0
 10 11  1  0  0  0  0
 11 12  1  0  0  0  0
 12 13  2  0  0  0  0
 12 14  2  0  0  0  0
 14 15  1  0  0  0  0
 15 16  1  0  0  0  0
 12 17  2  0  0  0  0
 17 18  1  0  0  0  0
 18 19  1  0  0  0  0
  1 20  1  0  0  0  0
  1 21  1  0  0  0  0
  1 22  1  0  0  0  0
  2 23  1  0  0  0  0
  2 24  1  0  0  0  0
  7 25  1  0  0  0  0
  7 26  1  0  0  0  0
  8 27  1  0  0  0  0
  8 28  1  0  0  0  0
  8 29  1  0  0  0  0
 10 30  1  0  0  0  0
 10 31  1  0  0  0  0
 15 32  1  0  0  0  0
 15 33  1  0  0  0  0
 16 34  1  0  0  0  0
 16 35  1  0  0  0  0
 16 36  1  0  0  0  0
 18 37  1  0  0  0  0
 18 38  1  0  0  0  0
 19 39  1  0  0  0  0
 19 40  1  0  0  0  0
 19 41  1  0  0  0  0
M  END
