 xtb: 6.7.1 (edcfbbe)
          04092505203D

 41 40  0     0  0            999 V2000
    2.7237   -3.3740    0.1558 C   0  0  0  0  0  0  0  0  0  0  0  0
    1.6227   -2.8048   -0.7134 C   0  0  0  0  0  0  0  0  0  0  0  0
    1.2734   -1.4561   -0.3332 O   0  0  0  0  0  0  0  0  0  0  0  0
    2.2665   -0.2400   -0.5499 P   0  0  0  0  0  0  0  0  0  0  0  0
    3.3082   -0.2689   -2.2074 S   0  0  0  0  0  0  0  0  0  0  0  0
    3.1296   -0.2686    0.7936 O   0  0  0  0  0  0  0  0  0  0  0  0
    4.3938    0.4062    0.8932 C   0  0  0  0  0  0  0  0  0  0  0  0
    4.2320    1.9129    0.9262 C   0  0  0  0  0  0  0  0  0  0  0  0
    0.9001    1.3569   -0.3076 S   0  0  0  0  0  0  0  0  0  0  0  0
    0.3181    0.9799    1.3761 C   0  0  0  0  0  0  0  0  0  0  0  0
   -0.9033   -0.3492    1.4544 S   0  0  0  0  0  0  0  0  0  0  0  0
   -2.3501    0.5678    0.1891 P   0  0  0  0  0  0  0  0  0  0  0  0
   -2.5078    2.5119    0.3231 S   0  0  0  0  0  0  0  0  0  0  0  0
   -3.6438   -0.3187    0.4494 O   0  0  0  0  0  0  0  0  0  0  0  0
   -4.1880   -0.6315    1.7467 C   0  0  0  0  0  0  0  0  0  0  0  0
   -4.4526    0.5997    2.5869 C   0  0  0  0  0  0  0  0  0  0  0  0
   -1.9849    0.1698   -1.2954 O   0  0  0  0  0  0  0  0  0  0  0  0
   -1.8447   -1.1955   -1.7490 C   0  0  0  0  0  0  0  0  0  0  0  0
   -3.0927   -1.6458   -2.4797 C   0  0  0  0  0  0  0  0  0  0  0  0
    3.6566   -2.8445   -0.0304 H   0  0  0  0  0  0  0  0  0  0  0  0
    2.4622   -3.2730    1.2058 H   0  0  0  0  0  0  0  0  0  0  0  0
    2.8613   -4.4238   -0.0838 H   0  0  0  0  0  0  0  0  0  0  0  0
    0.6898   -3.3577   -0.5945 H   0  0  0  0  0  0  0  0  0  0  0  0
    1.9234   -2.7988   -1.7659 H   0  0  0  0  0  0  0  0  0  0  0  0
    4.8267    0.0252    1.8192 H   0  0  0  0  0  0  0  0  0  0  0  0
    5.0128    0.1091    0.0405 H   0  0  0  0  0  0  0  0  0  0  0  0
    3.7987    2.2596   -0.0120 H   0  0  0  0  0  0  0  0  0  0  0  0
    3.5821    2.2136    1.7441 H   0  0  0  0  0  0  0  0  0  0  0  0
    5.2051    2.3760    1.0544 H   0  0  0  0  0  0  0  0  0  0  0  0
   -0.1378    1.9031    1.7326 H   0  0  0  0  0  0  0  0  0  0  0  0
    1.1549    0.6736    1.9986 H   0  0  0  0  0  0  0  0  0  0  0  0
   -5.1135   -1.1616    1.5150 H   0  0  0  0  0  0  0  0  0  0  0  0
   -3.4906   -1.3035    2.2544 H   0  0  0  0  0  0  0  0  0  0  0  0
   -3.5163    1.1030    2.8227 H   0  0  0  0  0  0  0  0  0  0  0  0
   -5.0883    1.2979    2.0476 H   0  0  0  0  0  0  0  0  0  0  0  0
   -4.9411    0.3070    3.5107 H   0  0  0  0  0  0  0  0  0  0  0  0
   -0.9763   -1.1802   -2.4127 H   0  0  0  0  0  0  0  0  0  0  0  0
   -1.6344   -1.8366   -0.8877 H   0  0  0  0  0  0  0  0  0  0  0  0
   -2.9408   -2.6516   -2.8586 H   0  0  0  0  0  0  0  0  0  0  0  0
   -3.9449   -1.6370   -1.8054 H   0  0  0  0  0  0  0  0  0  0  0  0
   -3.2971   -0.9756   -3.3101 H   0  0  0  0  0  0  0  0  0  0  0  0
  1  2  1  0  0  0  0
  2  3  1  0  0  0  0
  3  4  2  0  0  0  0
  4  5  2  0  0  0  0
  4  6  2  0  0  0  0
  6  7  1  0  0  0  0
  7  8  1  0  0  0  0
  4  9  1  0  0  0  0
  9 10  1  0  0  0  0
 10 11  1  0  0  0  0
 11 12  1  0  0  0  0
 12 13  2  0  0  0  0
 12 14  2  0  0  0  0
 14 15  1  0  0  0  0
 15 16  1  0  0  0  0
 12 17  2  0  0  0  0
 17 18  1  0  0  0  0
 18 19  1  0  0  0  0
  1 20  1  0  0  0  0
  1 21  1  0  0  0  0
  1 22  1  0  0  0  0
  2 23  1  0  0  0  0
  2 24  1  0  0  0  0
  7 25  1  0  0  0  0
  7 26  1  0  0  0  0
  8 27  1  0  0  0  0
  8 28  1  0  0  0  0
  8 29  1  0  0  0  0
 10 30  1  0  0  0  0
 10 31  1  0  0  0  0
 15 32  1  0  0  0  0
 15 33  1  0  0  0  0
 16 34  1  0  0  0  0
 16 35  1  0  0  0  0
 16 36  1  0  0  0  0
 18 37  1  0  0  0  0
 18 38  1  0  0  0  0
 19 39  1  0  0  0  0
 19 40  1  0  0  0  0
 19 41  1  0  0  0  0
M  END
