 xtb: 6.7.1 (edcfbbe)
          04092505213D

 41 40  0     0  0            999 V2000
    4.1355   -1.3976   -1.9804 C   0  0  0  0  0  0  0  0  0  0  0  0
    4.5386   -0.0126   -1.5243 C   0  0  0  0  0  0  0  0  0  0  0  0
    4.1640    0.2636   -0.1520 O   0  0  0  0  0  0  0  0  0  0  0  0
    2.7377    0.1039    0.4879 P   0  0  0  0  0  0  0  0  0  0  0  0
    2.5726    1.1295    2.1462 S   0  0  0  0  0  0  0  0  0  0  0  0
    2.6433   -1.4729    0.6848 O   0  0  0  0  0  0  0  0  0  0  0  0
    1.5701   -2.1269    1.3831 C   0  0  0  0  0  0  0  0  0  0  0  0
    0.6305   -2.8000    0.4003 C   0  0  0  0  0  0  0  0  0  0  0  0
    1.3689    0.6384   -1.0689 S   0  0  0  0  0  0  0  0  0  0  0  0
    0.2123    1.6114   -0.0745 C   0  0  0  0  0  0  0  0  0  0  0  0
   -0.8971    0.6081    0.9486 S   0  0  0  0  0  0  0  0  0  0  0  0
   -2.3404    0.2107   -0.5829 P   0  0  0  0  0  0  0  0  0  0  0  0
   -1.6881   -0.6763   -2.1973 S   0  0  0  0  0  0  0  0  0  0  0  0
   -2.9626    1.6242   -0.9013 O   0  0  0  0  0  0  0  0  0  0  0  0
   -3.6516    2.4403    0.0806 C   0  0  0  0  0  0  0  0  0  0  0  0
   -5.1469    2.2075    0.0193 C   0  0  0  0  0  0  0  0  0  0  0  0
   -3.5076   -0.5416    0.1846 O   0  0  0  0  0  0  0  0  0  0  0  0
   -3.4314   -1.9417    0.5176 C   0  0  0  0  0  0  0  0  0  0  0  0
   -2.9191   -2.1346    1.9314 C   0  0  0  0  0  0  0  0  0  0  0  0
    4.5184   -2.1470   -1.2926 H   0  0  0  0  0  0  0  0  0  0  0  0
    3.0507   -1.4787   -2.0266 H   0  0  0  0  0  0  0  0  0  0  0  0
    4.5414   -1.5762   -2.9715 H   0  0  0  0  0  0  0  0  0  0  0  0
    4.0853    0.7532   -2.1590 H   0  0  0  0  0  0  0  0  0  0  0  0
    5.6227    0.1096   -1.5125 H   0  0  0  0  0  0  0  0  0  0  0  0
    2.0574   -2.8644    2.0241 H   0  0  0  0  0  0  0  0  0  0  0  0
    1.0478   -1.3963    2.0105 H   0  0  0  0  0  0  0  0  0  0  0  0
    1.1861   -3.4836   -0.2352 H   0  0  0  0  0  0  0  0  0  0  0  0
   -0.1227   -3.3554    0.9496 H   0  0  0  0  0  0  0  0  0  0  0  0
    0.1374   -2.0671   -0.2364 H   0  0  0  0  0  0  0  0  0  0  0  0
   -0.3722    2.2046   -0.7748 H   0  0  0  0  0  0  0  0  0  0  0  0
    0.7764    2.2396    0.6153 H   0  0  0  0  0  0  0  0  0  0  0  0
   -3.2549    2.2129    1.0736 H   0  0  0  0  0  0  0  0  0  0  0  0
   -3.3994    3.4665   -0.1937 H   0  0  0  0  0  0  0  0  0  0  0  0
   -5.6392    2.8876    0.7075 H   0  0  0  0  0  0  0  0  0  0  0  0
   -5.5109    2.3907   -0.9881 H   0  0  0  0  0  0  0  0  0  0  0  0
   -5.3815    1.1836    0.2961 H   0  0  0  0  0  0  0  0  0  0  0  0
   -4.4554   -2.3056    0.4153 H   0  0  0  0  0  0  0  0  0  0  0  0
   -2.7932   -2.4443   -0.2161 H   0  0  0  0  0  0  0  0  0  0  0  0
   -3.5666   -1.6212    2.6365 H   0  0  0  0  0  0  0  0  0  0  0  0
   -2.9080   -3.1945    2.1643 H   0  0  0  0  0  0  0  0  0  0  0  0
   -1.9123   -1.7348    2.0313 H   0  0  0  0  0  0  0  0  0  0  0  0
  1  2  1  0  0  0  0
  2  3  1  0  0  0  0
  3  4  2  0  0  0  0
  4  5  2  0  0  0  0
  4  6  2  0  0  0  0
  6  7  1  0  0  0  0
  7  8  1  0  0  0  0
  4  9  1  0  0  0  0
  9 10  1  0  0  0  0
 10 11  1  0  0  0  0
 11 12  1  0  0  0  0
 12 13  2  0  0  0  0
 12 14  2  0  0  0  0
 14 15  1  0  0  0  0
 15 16  1  0  0  0  0
 12 17  2  0  0  0  0
 17 18  1  0  0  0  0
 18 19  1  0  0  0  0
  1 20  1  0  0  0  0
  1 21  1  0  0  0  0
  1 22  1  0  0  0  0
  2 23  1  0  0  0  0
  2 24  1  0  0  0  0
  7 25  1  0  0  0  0
  7 26  1  0  0  0  0
  8 27  1  0  0  0  0
  8 28  1  0  0  0  0
  8 29  1  0  0  0  0
 10 30  1  0  0  0  0
 10 31  1  0  0  0  0
 15 32  1  0  0  0  0
 15 33  1  0  0  0  0
 16 34  1  0  0  0  0
 16 35  1  0  0  0  0
 16 36  1  0  0  0  0
 18 37  1  0  0  0  0
 18 38  1  0  0  0  0
 19 39  1  0  0  0  0
 19 40  1  0  0  0  0
 19 41  1  0  0  0  0
M  END
