 xtb: 6.7.1 (edcfbbe)
          04092507313D

 38 37  0     0  0            999 V2000
    2.2351   -4.5839   -0.1160 C   0  0  0  0  0  0  0  0  0  0  0  0
    1.9968   -3.5703   -1.2200 C   0  0  0  0  0  0  0  0  0  0  0  0
    1.7836   -2.2756   -0.6220 O   0  0  0  0  0  0  0  0  0  0  0  0
    2.2407   -1.2065   -1.2371 C   0  0  0  0  0  0  0  0  0  0  0  0
    2.8316   -1.2148   -2.2942 O   0  0  0  0  0  0  0  0  0  0  0  0
    1.8978    0.0595   -0.4735 C   0  0  0  0  0  0  0  0  0  0  0  0
    0.7220    0.7450   -1.1716 C   0  0  0  0  0  0  0  0  0  0  0  0
    0.9886    0.9544   -2.2128 H   0  0  0  0  0  0  0  0  0  0  0  0
    0.3236    2.0493   -0.5008 C   0  0  0  0  0  0  0  0  0  0  0  0
   -0.8260    2.2989   -0.1984 O   0  0  0  0  0  0  0  0  0  0  0  0
    1.3450    2.8407   -0.3350 O   0  0  0  0  0  0  0  0  0  0  0  0
    1.1452    4.0965    0.3518 C   0  0  0  0  0  0  0  0  0  0  0  0
    1.4278    3.9314    1.8355 C   0  0  0  0  0  0  0  0  0  0  0  0
   -0.7512   -0.3191   -1.2708 S   0  0  0  0  0  0  0  0  0  0  0  0
   -1.5822   -0.0744    0.6811 P   0  0  0  0  0  0  0  0  0  0  0  0
   -0.4415    0.4324    2.1891 S   0  0  0  0  0  0  0  0  0  0  0  0
   -2.9237    0.7521    0.5949 O   0  0  0  0  0  0  0  0  0  0  0  0
   -3.9411    0.4880   -0.3890 C   0  0  0  0  0  0  0  0  0  0  0  0
   -2.2007   -1.5471    0.8712 O   0  0  0  0  0  0  0  0  0  0  0  0
   -1.3528   -2.6735    1.1100 C   0  0  0  0  0  0  0  0  0  0  0  0
    2.3706   -5.5655   -0.5576 H   0  0  0  0  0  0  0  0  0  0  0  0
    3.1245   -4.3221    0.4499 H   0  0  0  0  0  0  0  0  0  0  0  0
    1.3855   -4.6089    0.5602 H   0  0  0  0  0  0  0  0  0  0  0  0
    1.1005   -3.8121   -1.7983 H   0  0  0  0  0  0  0  0  0  0  0  0
    2.8498   -3.4990   -1.9011 H   0  0  0  0  0  0  0  0  0  0  0  0
    2.7523    0.7364   -0.4961 H   0  0  0  0  0  0  0  0  0  0  0  0
    1.6407   -0.1892    0.5573 H   0  0  0  0  0  0  0  0  0  0  0  0
    1.8527    4.7802   -0.1175 H   0  0  0  0  0  0  0  0  0  0  0  0
    0.1175    4.4282    0.1826 H   0  0  0  0  0  0  0  0  0  0  0  0
    0.7505    3.1973    2.2689 H   0  0  0  0  0  0  0  0  0  0  0  0
    2.4484    3.5941    1.9899 H   0  0  0  0  0  0  0  0  0  0  0  0
    1.2837    4.8828    2.3363 H   0  0  0  0  0  0  0  0  0  0  0  0
   -4.7120    1.2310   -0.2022 H   0  0  0  0  0  0  0  0  0  0  0  0
   -4.3305   -0.5203   -0.2594 H   0  0  0  0  0  0  0  0  0  0  0  0
   -3.5282    0.6069   -1.3908 H   0  0  0  0  0  0  0  0  0  0  0  0
   -0.7184   -2.8538    0.2422 H   0  0  0  0  0  0  0  0  0  0  0  0
   -2.0220   -3.5123    1.2817 H   0  0  0  0  0  0  0  0  0  0  0  0
   -0.7305   -2.4909    1.9878 H   0  0  0  0  0  0  0  0  0  0  0  0
  1  2  1  0  0  0  0
  2  3  1  0  0  0  0
  3  4  1  0  0  0  0
  4  5  2  0  0  0  0
  4  6  1  0  0  0  0
  6  7  1  0  0  0  0
  7  8  1  0  0  0  0
  7  9  1  0  0  0  0
  9 10  2  0  0  0  0
  9 11  4  0  0  0  0
 11 12  1  0  0  0  0
 12 13  1  0  0  0  0
  7 14  1  0  0  0  0
 14 15  1  0  0  0  0
 15 16  2  0  0  0  0
 15 17  2  0  0  0  0
 17 18  1  0  0  0  0
 15 19  1  0  0  0  0
 19 20  1  0  0  0  0
  1 21  1  0  0  0  0
  1 22  1  0  0  0  0
  1 23  1  0  0  0  0
  2 24  1  0  0  0  0
  2 25  1  0  0  0  0
  6 26  1  0  0  0  0
  6 27  1  0  0  0  0
 12 28  1  0  0  0  0
 12 29  1  0  0  0  0
 13 30  1  0  0  0  0
 13 31  1  0  0  0  0
 13 32  1  0  0  0  0
 18 33  1  0  0  0  0
 18 34  1  0  0  0  0
 18 35  1  0  0  0  0
 20 36  1  0  0  0  0
 20 37  1  0  0  0  0
 20 38  1  0  0  0  0
M  END
