 xtb: 6.7.1 (edcfbbe)
          04092505213D

 41 40  0     0  0            999 V2000
    5.4076   -0.2624   -0.7950 C   0  0  0  0  0  0  0  0  0  0  0  0
    4.4404   -0.9280    0.1654 C   0  0  0  0  0  0  0  0  0  0  0  0
    3.4676    0.0073    0.6660 O   0  0  0  0  0  0  0  0  0  0  0  0
    2.0783    0.2971   -0.0523 P   0  0  0  0  0  0  0  0  0  0  0  0
    2.1585    0.9773   -1.8936 S   0  0  0  0  0  0  0  0  0  0  0  0
    1.4142    1.2296    1.0375 O   0  0  0  0  0  0  0  0  0  0  0  0
    1.4155    2.6663    0.9186 C   0  0  0  0  0  0  0  0  0  0  0  0
    2.8131    3.2314    1.0479 C   0  0  0  0  0  0  0  0  0  0  0  0
    1.0578   -1.5422    0.2162 S   0  0  0  0  0  0  0  0  0  0  0  0
    0.2246   -1.7002   -1.4037 C   0  0  0  0  0  0  0  0  0  0  0  0
   -1.5084   -2.1916   -1.2494 S   0  0  0  0  0  0  0  0  0  0  0  0
   -2.2518   -0.4903   -0.2441 P   0  0  0  0  0  0  0  0  0  0  0  0
   -1.3496    1.2095   -0.6497 S   0  0  0  0  0  0  0  0  0  0  0  0
   -2.3356   -0.8464    1.3048 O   0  0  0  0  0  0  0  0  0  0  0  0
   -1.4463   -0.3754    2.3303 C   0  0  0  0  0  0  0  0  0  0  0  0
   -2.2746    0.1286    3.4959 C   0  0  0  0  0  0  0  0  0  0  0  0
   -3.7513   -0.6759   -0.7065 O   0  0  0  0  0  0  0  0  0  0  0  0
   -4.8892   -0.1887    0.0386 C   0  0  0  0  0  0  0  0  0  0  0  0
   -4.9009    1.3227    0.1413 C   0  0  0  0  0  0  0  0  0  0  0  0
    4.8792    0.1022   -1.6731 H   0  0  0  0  0  0  0  0  0  0  0  0
    5.8987    0.5762   -0.3095 H   0  0  0  0  0  0  0  0  0  0  0  0
    6.1554   -0.9846   -1.1063 H   0  0  0  0  0  0  0  0  0  0  0  0
    4.9539   -1.2854    1.0601 H   0  0  0  0  0  0  0  0  0  0  0  0
    3.9222   -1.7640   -0.3140 H   0  0  0  0  0  0  0  0  0  0  0  0
    0.9649    2.9352   -0.0428 H   0  0  0  0  0  0  0  0  0  0  0  0
    0.7633    2.9967    1.7280 H   0  0  0  0  0  0  0  0  0  0  0  0
    3.4258    2.8855    0.2159 H   0  0  0  0  0  0  0  0  0  0  0  0
    2.7677    4.3156    1.0271 H   0  0  0  0  0  0  0  0  0  0  0  0
    3.2653    2.9009    1.9792 H   0  0  0  0  0  0  0  0  0  0  0  0
    0.7087   -2.4931   -1.9680 H   0  0  0  0  0  0  0  0  0  0  0  0
    0.3044   -0.7422   -1.9258 H   0  0  0  0  0  0  0  0  0  0  0  0
   -0.8154   -1.2187    2.6216 H   0  0  0  0  0  0  0  0  0  0  0  0
   -0.8144    0.4197    1.9202 H   0  0  0  0  0  0  0  0  0  0  0  0
   -2.9315   -0.6596    3.8525 H   0  0  0  0  0  0  0  0  0  0  0  0
   -1.6089    0.4306    4.2977 H   0  0  0  0  0  0  0  0  0  0  0  0
   -2.8763    0.9814    3.1917 H   0  0  0  0  0  0  0  0  0  0  0  0
   -5.7426   -0.5587   -0.5317 H   0  0  0  0  0  0  0  0  0  0  0  0
   -4.8750   -0.6496    1.0286 H   0  0  0  0  0  0  0  0  0  0  0  0
   -4.8770    1.7691   -0.8501 H   0  0  0  0  0  0  0  0  0  0  0  0
   -5.7984    1.6443    0.6601 H   0  0  0  0  0  0  0  0  0  0  0  0
   -4.0258    1.6674    0.6913 H   0  0  0  0  0  0  0  0  0  0  0  0
  1  2  1  0  0  0  0
  2  3  1  0  0  0  0
  3  4  2  0  0  0  0
  4  5  2  0  0  0  0
  4  6  2  0  0  0  0
  6  7  1  0  0  0  0
  7  8  1  0  0  0  0
  4  9  1  0  0  0  0
  9 10  1  0  0  0  0
 10 11  1  0  0  0  0
 11 12  1  0  0  0  0
 12 13  2  0  0  0  0
 12 14  2  0  0  0  0
 14 15  1  0  0  0  0
 15 16  1  0  0  0  0
 12 17  2  0  0  0  0
 17 18  1  0  0  0  0
 18 19  1  0  0  0  0
  1 20  1  0  0  0  0
  1 21  1  0  0  0  0
  1 22  1  0  0  0  0
  2 23  1  0  0  0  0
  2 24  1  0  0  0  0
  7 25  1  0  0  0  0
  7 26  1  0  0  0  0
  8 27  1  0  0  0  0
  8 28  1  0  0  0  0
  8 29  1  0  0  0  0
 10 30  1  0  0  0  0
 10 31  1  0  0  0  0
 15 32  1  0  0  0  0
 15 33  1  0  0  0  0
 16 34  1  0  0  0  0
 16 35  1  0  0  0  0
 16 36  1  0  0  0  0
 18 37  1  0  0  0  0
 18 38  1  0  0  0  0
 19 39  1  0  0  0  0
 19 40  1  0  0  0  0
 19 41  1  0  0  0  0
M  END
