 xtb: 6.7.1 (edcfbbe)
          04092505213D

 41 40  0     0  0            999 V2000
    5.1273    0.5033    0.3022 C   0  0  0  0  0  0  0  0  0  0  0  0
    3.9391    1.1361   -0.3894 C   0  0  0  0  0  0  0  0  0  0  0  0
    2.9789    0.1416   -0.8092 O   0  0  0  0  0  0  0  0  0  0  0  0
    2.0813   -0.6404    0.2315 P   0  0  0  0  0  0  0  0  0  0  0  0
    1.6066    0.3308    1.8695 S   0  0  0  0  0  0  0  0  0  0  0  0
    2.8872   -1.9876    0.4712 O   0  0  0  0  0  0  0  0  0  0  0  0
    2.6598   -2.8557    1.6003 C   0  0  0  0  0  0  0  0  0  0  0  0
    3.7645   -2.6829    2.6248 C   0  0  0  0  0  0  0  0  0  0  0  0
    0.5391   -1.2974   -1.0776 S   0  0  0  0  0  0  0  0  0  0  0  0
    0.0997    0.2993   -1.8237 C   0  0  0  0  0  0  0  0  0  0  0  0
   -0.6248    1.4765   -0.6619 S   0  0  0  0  0  0  0  0  0  0  0  0
   -2.5438    0.5460   -0.5675 P   0  0  0  0  0  0  0  0  0  0  0  0
   -3.2218   -0.1366   -2.2692 S   0  0  0  0  0  0  0  0  0  0  0  0
   -3.4100    1.6039    0.2403 O   0  0  0  0  0  0  0  0  0  0  0  0
   -3.5069    3.0093   -0.0619 C   0  0  0  0  0  0  0  0  0  0  0  0
   -3.9089    3.2735   -1.4975 C   0  0  0  0  0  0  0  0  0  0  0  0
   -2.4545   -0.6409    0.4622 O   0  0  0  0  0  0  0  0  0  0  0  0
   -2.0141   -0.5019    1.8356 C   0  0  0  0  0  0  0  0  0  0  0  0
   -1.5604   -1.8669    2.3085 C   0  0  0  0  0  0  0  0  0  0  0  0
    5.8703    1.2663    0.5121 H   0  0  0  0  0  0  0  0  0  0  0  0
    4.8101    0.0498    1.2397 H   0  0  0  0  0  0  0  0  0  0  0  0
    5.5643   -0.2649   -0.3303 H   0  0  0  0  0  0  0  0  0  0  0  0
    4.2263    1.6325   -1.3173 H   0  0  0  0  0  0  0  0  0  0  0  0
    3.4352    1.8464    0.2741 H   0  0  0  0  0  0  0  0  0  0  0  0
    1.6871   -2.6296    2.0453 H   0  0  0  0  0  0  0  0  0  0  0  0
    2.6488   -3.8658    1.1873 H   0  0  0  0  0  0  0  0  0  0  0  0
    4.7343   -2.8330    2.1588 H   0  0  0  0  0  0  0  0  0  0  0  0
    3.7233   -1.6829    3.0517 H   0  0  0  0  0  0  0  0  0  0  0  0
    3.6305   -3.4104    3.4188 H   0  0  0  0  0  0  0  0  0  0  0  0
   -0.6349    0.0729   -2.5996 H   0  0  0  0  0  0  0  0  0  0  0  0
    0.9899    0.7612   -2.2418 H   0  0  0  0  0  0  0  0  0  0  0  0
   -4.2627    3.3692    0.6383 H   0  0  0  0  0  0  0  0  0  0  0  0
   -2.5417    3.4718    0.1631 H   0  0  0  0  0  0  0  0  0  0  0  0
   -4.8352    2.7550   -1.7335 H   0  0  0  0  0  0  0  0  0  0  0  0
   -4.0455    4.3401   -1.6430 H   0  0  0  0  0  0  0  0  0  0  0  0
   -3.1347    2.9178   -2.1760 H   0  0  0  0  0  0  0  0  0  0  0  0
   -1.1952    0.2235    1.8796 H   0  0  0  0  0  0  0  0  0  0  0  0
   -2.8551   -0.1283    2.4217 H   0  0  0  0  0  0  0  0  0  0  0  0
   -0.7631   -2.2332    1.6641 H   0  0  0  0  0  0  0  0  0  0  0  0
   -1.1913   -1.7856    3.3259 H   0  0  0  0  0  0  0  0  0  0  0  0
   -2.3855   -2.5717    2.2703 H   0  0  0  0  0  0  0  0  0  0  0  0
  1  2  1  0  0  0  0
  2  3  1  0  0  0  0
  3  4  2  0  0  0  0
  4  5  2  0  0  0  0
  4  6  2  0  0  0  0
  6  7  1  0  0  0  0
  7  8  1  0  0  0  0
  4  9  1  0  0  0  0
  9 10  1  0  0  0  0
 10 11  1  0  0  0  0
 11 12  1  0  0  0  0
 12 13  2  0  0  0  0
 12 14  2  0  0  0  0
 14 15  1  0  0  0  0
 15 16  1  0  0  0  0
 12 17  2  0  0  0  0
 17 18  1  0  0  0  0
 18 19  1  0  0  0  0
  1 20  1  0  0  0  0
  1 21  1  0  0  0  0
  1 22  1  0  0  0  0
  2 23  1  0  0  0  0
  2 24  1  0  0  0  0
  7 25  1  0  0  0  0
  7 26  1  0  0  0  0
  8 27  1  0  0  0  0
  8 28  1  0  0  0  0
  8 29  1  0  0  0  0
 10 30  1  0  0  0  0
 10 31  1  0  0  0  0
 15 32  1  0  0  0  0
 15 33  1  0  0  0  0
 16 34  1  0  0  0  0
 16 35  1  0  0  0  0
 16 36  1  0  0  0  0
 18 37  1  0  0  0  0
 18 38  1  0  0  0  0
 19 39  1  0  0  0  0
 19 40  1  0  0  0  0
 19 41  1  0  0  0  0
M  END
