 xtb: 6.7.1 (edcfbbe)
          04092505203D

 41 40  0     0  0            999 V2000
    2.6982   -0.1995   -2.9197 C   0  0  0  0  0  0  0  0  0  0  0  0
    3.5535    0.6707   -2.0193 C   0  0  0  0  0  0  0  0  0  0  0  0
    3.6415    0.1606   -0.6802 O   0  0  0  0  0  0  0  0  0  0  0  0
    2.3889    0.0355    0.2847 P   0  0  0  0  0  0  0  0  0  0  0  0
    1.1066    1.5284    0.2042 S   0  0  0  0  0  0  0  0  0  0  0  0
    3.2339   -0.0485    1.6200 O   0  0  0  0  0  0  0  0  0  0  0  0
    2.6530    0.1872    2.9153 C   0  0  0  0  0  0  0  0  0  0  0  0
    1.7582   -0.9520    3.3640 C   0  0  0  0  0  0  0  0  0  0  0  0
    1.7075   -1.9599    0.0205 S   0  0  0  0  0  0  0  0  0  0  0  0
   -0.0103   -1.7800   -0.5376 C   0  0  0  0  0  0  0  0  0  0  0  0
   -1.1310   -1.0512    0.6961 S   0  0  0  0  0  0  0  0  0  0  0  0
   -2.0442    0.4850   -0.4719 P   0  0  0  0  0  0  0  0  0  0  0  0
   -1.3706    0.6829   -2.3003 S   0  0  0  0  0  0  0  0  0  0  0  0
   -1.9796    1.8222    0.3569 O   0  0  0  0  0  0  0  0  0  0  0  0
   -2.7788    2.1349    1.5230 C   0  0  0  0  0  0  0  0  0  0  0  0
   -2.4779    1.2205    2.6913 C   0  0  0  0  0  0  0  0  0  0  0  0
   -3.6064    0.1610   -0.3887 O   0  0  0  0  0  0  0  0  0  0  0  0
   -4.2832   -0.7055   -1.3137 C   0  0  0  0  0  0  0  0  0  0  0  0
   -3.7959   -2.1382   -1.2367 C   0  0  0  0  0  0  0  0  0  0  0  0
    2.8114    0.1266   -3.9488 H   0  0  0  0  0  0  0  0  0  0  0  0
    2.9978   -1.2413   -2.8361 H   0  0  0  0  0  0  0  0  0  0  0  0
    1.6467   -0.1029   -2.6476 H   0  0  0  0  0  0  0  0  0  0  0  0
    3.1536    1.6893   -1.9805 H   0  0  0  0  0  0  0  0  0  0  0  0
    4.5914    0.6945   -2.3547 H   0  0  0  0  0  0  0  0  0  0  0  0
    3.5182    0.2979    3.5708 H   0  0  0  0  0  0  0  0  0  0  0  0
    2.0960    1.1297    2.8779 H   0  0  0  0  0  0  0  0  0  0  0  0
    2.2863   -1.8982    3.2805 H   0  0  0  0  0  0  0  0  0  0  0  0
    1.4682   -0.7915    4.3975 H   0  0  0  0  0  0  0  0  0  0  0  0
    0.8593   -0.9972    2.7501 H   0  0  0  0  0  0  0  0  0  0  0  0
   -0.3329   -2.7995   -0.7346 H   0  0  0  0  0  0  0  0  0  0  0  0
   -0.0600   -1.1666   -1.4415 H   0  0  0  0  0  0  0  0  0  0  0  0
   -2.5004    3.1677    1.7394 H   0  0  0  0  0  0  0  0  0  0  0  0
   -3.8324    2.0817    1.2410 H   0  0  0  0  0  0  0  0  0  0  0  0
   -1.4116    1.2253    2.9042 H   0  0  0  0  0  0  0  0  0  0  0  0
   -3.0192    1.5701    3.5648 H   0  0  0  0  0  0  0  0  0  0  0  0
   -2.7868    0.2011    2.4650 H   0  0  0  0  0  0  0  0  0  0  0  0
   -5.3318   -0.6210   -1.0241 H   0  0  0  0  0  0  0  0  0  0  0  0
   -4.1431   -0.3073   -2.3235 H   0  0  0  0  0  0  0  0  0  0  0  0
   -3.8142   -2.4918   -0.2090 H   0  0  0  0  0  0  0  0  0  0  0  0
   -4.4394   -2.7652   -1.8455 H   0  0  0  0  0  0  0  0  0  0  0  0
   -2.7789   -2.2032   -1.6202 H   0  0  0  0  0  0  0  0  0  0  0  0
  1  2  1  0  0  0  0
  2  3  1  0  0  0  0
  3  4  2  0  0  0  0
  4  5  2  0  0  0  0
  4  6  2  0  0  0  0
  6  7  1  0  0  0  0
  7  8  1  0  0  0  0
  4  9  1  0  0  0  0
  9 10  1  0  0  0  0
 10 11  1  0  0  0  0
 11 12  1  0  0  0  0
 12 13  2  0  0  0  0
 12 14  2  0  0  0  0
 14 15  1  0  0  0  0
 15 16  1  0  0  0  0
 12 17  2  0  0  0  0
 17 18  1  0  0  0  0
 18 19  1  0  0  0  0
  1 20  1  0  0  0  0
  1 21  1  0  0  0  0
  1 22  1  0  0  0  0
  2 23  1  0  0  0  0
  2 24  1  0  0  0  0
  7 25  1  0  0  0  0
  7 26  1  0  0  0  0
  8 27  1  0  0  0  0
  8 28  1  0  0  0  0
  8 29  1  0  0  0  0
 10 30  1  0  0  0  0
 10 31  1  0  0  0  0
 15 32  1  0  0  0  0
 15 33  1  0  0  0  0
 16 34  1  0  0  0  0
 16 35  1  0  0  0  0
 16 36  1  0  0  0  0
 18 37  1  0  0  0  0
 18 38  1  0  0  0  0
 19 39  1  0  0  0  0
 19 40  1  0  0  0  0
 19 41  1  0  0  0  0
M  END
