 xtb: 6.7.1 (edcfbbe)
          04092505203D

 41 40  0     0  0            999 V2000
    4.5823   -0.8410   -2.1412 C   0  0  0  0  0  0  0  0  0  0  0  0
    4.0025   -1.8223   -1.1443 C   0  0  0  0  0  0  0  0  0  0  0  0
    3.5358   -1.1885    0.0610 O   0  0  0  0  0  0  0  0  0  0  0  0
    2.4917    0.0042    0.1324 P   0  0  0  0  0  0  0  0  0  0  0  0
    3.1579    1.8013   -0.2698 S   0  0  0  0  0  0  0  0  0  0  0  0
    2.0292   -0.0320    1.6369 O   0  0  0  0  0  0  0  0  0  0  0  0
    1.2217   -1.0334    2.3010 C   0  0  0  0  0  0  0  0  0  0  0  0
    1.7816   -2.4347    2.1778 C   0  0  0  0  0  0  0  0  0  0  0  0
    0.8671   -0.6719   -1.0805 S   0  0  0  0  0  0  0  0  0  0  0  0
    0.1040    0.9487   -1.2847 C   0  0  0  0  0  0  0  0  0  0  0  0
   -0.6984    1.5467    0.2304 S   0  0  0  0  0  0  0  0  0  0  0  0
   -2.4313    0.3593    0.0345 P   0  0  0  0  0  0  0  0  0  0  0  0
   -3.2021    0.1836   -1.7640 S   0  0  0  0  0  0  0  0  0  0  0  0
   -3.4391    0.9001    1.1389 O   0  0  0  0  0  0  0  0  0  0  0  0
   -4.4007    1.9341    0.8651 C   0  0  0  0  0  0  0  0  0  0  0  0
   -3.7389    3.2735    0.6140 C   0  0  0  0  0  0  0  0  0  0  0  0
   -1.9245   -0.9836    0.7023 O   0  0  0  0  0  0  0  0  0  0  0  0
   -2.6041   -2.2495    0.5135 C   0  0  0  0  0  0  0  0  0  0  0  0
   -1.5649   -3.3364    0.3304 C   0  0  0  0  0  0  0  0  0  0  0  0
    3.8070   -0.1667   -2.5020 H   0  0  0  0  0  0  0  0  0  0  0  0
    5.3635   -0.2443   -1.6763 H   0  0  0  0  0  0  0  0  0  0  0  0
    4.9977   -1.3853   -2.9832 H   0  0  0  0  0  0  0  0  0  0  0  0
    4.7606   -2.5219   -0.7880 H   0  0  0  0  0  0  0  0  0  0  0  0
    3.1667   -2.3717   -1.5864 H   0  0  0  0  0  0  0  0  0  0  0  0
    1.2167   -0.6931    3.3379 H   0  0  0  0  0  0  0  0  0  0  0  0
    0.2075   -0.9772    1.8949 H   0  0  0  0  0  0  0  0  0  0  0  0
    2.8279   -2.4460    2.4722 H   0  0  0  0  0  0  0  0  0  0  0  0
    1.2211   -3.0958    2.8323 H   0  0  0  0  0  0  0  0  0  0  0  0
    1.6982   -2.7918    1.1538 H   0  0  0  0  0  0  0  0  0  0  0  0
   -0.6392    0.8612   -2.0780 H   0  0  0  0  0  0  0  0  0  0  0  0
    0.8763    1.6778   -1.5348 H   0  0  0  0  0  0  0  0  0  0  0  0
   -4.9958    1.6306   -0.0021 H   0  0  0  0  0  0  0  0  0  0  0  0
   -5.0265    1.9536    1.7582 H   0  0  0  0  0  0  0  0  0  0  0  0
   -3.0675    3.5237    1.4319 H   0  0  0  0  0  0  0  0  0  0  0  0
   -3.1643    3.2381   -0.3110 H   0  0  0  0  0  0  0  0  0  0  0  0
   -4.5008    4.0412    0.5249 H   0  0  0  0  0  0  0  0  0  0  0  0
   -3.2166   -2.4198    1.4009 H   0  0  0  0  0  0  0  0  0  0  0  0
   -3.2519   -2.1709   -0.3660 H   0  0  0  0  0  0  0  0  0  0  0  0
   -0.9414   -3.1128   -0.5319 H   0  0  0  0  0  0  0  0  0  0  0  0
   -0.9372   -3.4079    1.2132 H   0  0  0  0  0  0  0  0  0  0  0  0
   -2.0700   -4.2835    0.1706 H   0  0  0  0  0  0  0  0  0  0  0  0
  1  2  1  0  0  0  0
  2  3  1  0  0  0  0
  3  4  2  0  0  0  0
  4  5  2  0  0  0  0
  4  6  2  0  0  0  0
  6  7  1  0  0  0  0
  7  8  1  0  0  0  0
  4  9  1  0  0  0  0
  9 10  1  0  0  0  0
 10 11  1  0  0  0  0
 11 12  1  0  0  0  0
 12 13  2  0  0  0  0
 12 14  2  0  0  0  0
 14 15  1  0  0  0  0
 15 16  1  0  0  0  0
 12 17  2  0  0  0  0
 17 18  1  0  0  0  0
 18 19  1  0  0  0  0
  1 20  1  0  0  0  0
  1 21  1  0  0  0  0
  1 22  1  0  0  0  0
  2 23  1  0  0  0  0
  2 24  1  0  0  0  0
  7 25  1  0  0  0  0
  7 26  1  0  0  0  0
  8 27  1  0  0  0  0
  8 28  1  0  0  0  0
  8 29  1  0  0  0  0
 10 30  1  0  0  0  0
 10 31  1  0  0  0  0
 15 32  1  0  0  0  0
 15 33  1  0  0  0  0
 16 34  1  0  0  0  0
 16 35  1  0  0  0  0
 16 36  1  0  0  0  0
 18 37  1  0  0  0  0
 18 38  1  0  0  0  0
 19 39  1  0  0  0  0
 19 40  1  0  0  0  0
 19 41  1  0  0  0  0
M  END
