 xtb: 6.7.1 (edcfbbe)
          04092505203D

 41 40  0     0  0            999 V2000
    0.9725   -1.8542    2.1573 C   0  0  0  0  0  0  0  0  0  0  0  0
    2.0485   -2.0710    1.1113 C   0  0  0  0  0  0  0  0  0  0  0  0
    2.8089   -0.8635    0.9225 O   0  0  0  0  0  0  0  0  0  0  0  0
    2.7272    0.0303   -0.3935 P   0  0  0  0  0  0  0  0  0  0  0  0
    2.9440   -0.9488   -2.0765 S   0  0  0  0  0  0  0  0  0  0  0  0
    3.8920    1.0571   -0.1503 O   0  0  0  0  0  0  0  0  0  0  0  0
    4.2812    1.6035    1.1364 C   0  0  0  0  0  0  0  0  0  0  0  0
    3.1529    2.3474    1.8168 C   0  0  0  0  0  0  0  0  0  0  0  0
    0.9263    1.1843   -0.2852 S   0  0  0  0  0  0  0  0  0  0  0  0
   -0.0203    0.3618   -1.5814 C   0  0  0  0  0  0  0  0  0  0  0  0
   -0.8945   -1.1212   -1.0038 S   0  0  0  0  0  0  0  0  0  0  0  0
   -2.4503   -0.0838   -0.0324 P   0  0  0  0  0  0  0  0  0  0  0  0
   -3.2047    1.4805   -0.9546 S   0  0  0  0  0  0  0  0  0  0  0  0
   -1.7581    0.2029    1.3600 O   0  0  0  0  0  0  0  0  0  0  0  0
   -2.2269    1.2105    2.2865 C   0  0  0  0  0  0  0  0  0  0  0  0
   -1.0224    1.8864    2.9094 C   0  0  0  0  0  0  0  0  0  0  0  0
   -3.5156   -1.1947    0.3666 O   0  0  0  0  0  0  0  0  0  0  0  0
   -4.6051   -1.5670   -0.4944 C   0  0  0  0  0  0  0  0  0  0  0  0
   -4.1250   -2.2780   -1.7432 C   0  0  0  0  0  0  0  0  0  0  0  0
    0.4494   -2.7900    2.3256 H   0  0  0  0  0  0  0  0  0  0  0  0
    1.4222   -1.5209    3.0884 H   0  0  0  0  0  0  0  0  0  0  0  0
    0.2547   -1.1089    1.8233 H   0  0  0  0  0  0  0  0  0  0  0  0
    1.6218   -2.3877    0.1539 H   0  0  0  0  0  0  0  0  0  0  0  0
    2.7737   -2.8178    1.4417 H   0  0  0  0  0  0  0  0  0  0  0  0
    4.6407    0.7816    1.7580 H   0  0  0  0  0  0  0  0  0  0  0  0
    5.1080    2.2680    0.8813 H   0  0  0  0  0  0  0  0  0  0  0  0
    2.7622    3.1249    1.1651 H   0  0  0  0  0  0  0  0  0  0  0  0
    2.3458    1.6607    2.0650 H   0  0  0  0  0  0  0  0  0  0  0  0
    3.5251    2.7998    2.7307 H   0  0  0  0  0  0  0  0  0  0  0  0
    0.6601    0.0381   -2.3708 H   0  0  0  0  0  0  0  0  0  0  0  0
   -0.7503    1.0816   -1.9523 H   0  0  0  0  0  0  0  0  0  0  0  0
   -2.8466    1.9297    1.7403 H   0  0  0  0  0  0  0  0  0  0  0  0
   -2.8370    0.7013    3.0352 H   0  0  0  0  0  0  0  0  0  0  0  0
   -0.4112    1.1540    3.4285 H   0  0  0  0  0  0  0  0  0  0  0  0
   -0.4240    2.3644    2.1376 H   0  0  0  0  0  0  0  0  0  0  0  0
   -1.3625    2.6362    3.6161 H   0  0  0  0  0  0  0  0  0  0  0  0
   -5.2216   -2.2166    0.1283 H   0  0  0  0  0  0  0  0  0  0  0  0
   -5.1628   -0.6622   -0.7569 H   0  0  0  0  0  0  0  0  0  0  0  0
   -3.4825   -3.1142   -1.4790 H   0  0  0  0  0  0  0  0  0  0  0  0
   -4.9808   -2.6423   -2.3024 H   0  0  0  0  0  0  0  0  0  0  0  0
   -3.5612   -1.5890   -2.3714 H   0  0  0  0  0  0  0  0  0  0  0  0
  1  2  1  0  0  0  0
  2  3  1  0  0  0  0
  3  4  2  0  0  0  0
  4  5  2  0  0  0  0
  4  6  2  0  0  0  0
  6  7  1  0  0  0  0
  7  8  1  0  0  0  0
  4  9  1  0  0  0  0
  9 10  1  0  0  0  0
 10 11  1  0  0  0  0
 11 12  1  0  0  0  0
 12 13  2  0  0  0  0
 12 14  2  0  0  0  0
 14 15  1  0  0  0  0
 15 16  1  0  0  0  0
 12 17  2  0  0  0  0
 17 18  1  0  0  0  0
 18 19  1  0  0  0  0
  1 20  1  0  0  0  0
  1 21  1  0  0  0  0
  1 22  1  0  0  0  0
  2 23  1  0  0  0  0
  2 24  1  0  0  0  0
  7 25  1  0  0  0  0
  7 26  1  0  0  0  0
  8 27  1  0  0  0  0
  8 28  1  0  0  0  0
  8 29  1  0  0  0  0
 10 30  1  0  0  0  0
 10 31  1  0  0  0  0
 15 32  1  0  0  0  0
 15 33  1  0  0  0  0
 16 34  1  0  0  0  0
 16 35  1  0  0  0  0
 16 36  1  0  0  0  0
 18 37  1  0  0  0  0
 18 38  1  0  0  0  0
 19 39  1  0  0  0  0
 19 40  1  0  0  0  0
 19 41  1  0  0  0  0
M  END
