 xtb: 6.7.1 (edcfbbe)
          04092507313D

 38 37  0     0  0            999 V2000
    2.0730   -3.3439    0.7337 C   0  0  0  0  0  0  0  0  0  0  0  0
    3.1596   -2.4062    0.2337 C   0  0  0  0  0  0  0  0  0  0  0  0
    2.6994   -1.6623   -0.9114 O   0  0  0  0  0  0  0  0  0  0  0  0
    2.1475   -0.4854   -0.7325 C   0  0  0  0  0  0  0  0  0  0  0  0
    2.0011    0.0678    0.3391 O   0  0  0  0  0  0  0  0  0  0  0  0
    1.7211    0.1550   -2.0378 C   0  0  0  0  0  0  0  0  0  0  0  0
    0.4064    0.9040   -1.8302 C   0  0  0  0  0  0  0  0  0  0  0  0
    0.2040    1.5517   -2.6868 H   0  0  0  0  0  0  0  0  0  0  0  0
    0.4307    1.7606   -0.5776 C   0  0  0  0  0  0  0  0  0  0  0  0
   -0.4045    1.6452    0.3053 O   0  0  0  0  0  0  0  0  0  0  0  0
    1.3440    2.6842   -0.6353 O   0  0  0  0  0  0  0  0  0  0  0  0
    1.4976    3.5941    0.4783 C   0  0  0  0  0  0  0  0  0  0  0  0
    2.5965    3.1107    1.4086 C   0  0  0  0  0  0  0  0  0  0  0  0
   -1.0147   -0.2385   -1.7263 S   0  0  0  0  0  0  0  0  0  0  0  0
   -1.6896   -0.3093    0.2739 P   0  0  0  0  0  0  0  0  0  0  0  0
   -0.6497   -0.8049    1.8751 S   0  0  0  0  0  0  0  0  0  0  0  0
   -2.7831    0.8492    0.3933 O   0  0  0  0  0  0  0  0  0  0  0  0
   -3.8132    0.7620    1.3882 C   0  0  0  0  0  0  0  0  0  0  0  0
   -2.7357   -1.5233   -0.0078 O   0  0  0  0  0  0  0  0  0  0  0  0
   -2.3464   -2.8945   -0.0164 C   0  0  0  0  0  0  0  0  0  0  0  0
    1.7255   -3.9804   -0.0753 H   0  0  0  0  0  0  0  0  0  0  0  0
    2.4697   -3.9607    1.5329 H   0  0  0  0  0  0  0  0  0  0  0  0
    1.2330   -2.7708    1.1235 H   0  0  0  0  0  0  0  0  0  0  0  0
    4.0262   -2.9591   -0.1299 H   0  0  0  0  0  0  0  0  0  0  0  0
    3.4520   -1.7018    1.0173 H   0  0  0  0  0  0  0  0  0  0  0  0
    1.6147   -0.6038   -2.8109 H   0  0  0  0  0  0  0  0  0  0  0  0
    2.4964    0.8678   -2.3277 H   0  0  0  0  0  0  0  0  0  0  0  0
    1.7545    4.5473    0.0148 H   0  0  0  0  0  0  0  0  0  0  0  0
    0.5424    3.6662    1.0046 H   0  0  0  0  0  0  0  0  0  0  0  0
    2.3552    2.1164    1.7791 H   0  0  0  0  0  0  0  0  0  0  0  0
    3.5445    3.0650    0.8807 H   0  0  0  0  0  0  0  0  0  0  0  0
    2.6824    3.7924    2.2481 H   0  0  0  0  0  0  0  0  0  0  0  0
   -3.3834    0.4933    2.3551 H   0  0  0  0  0  0  0  0  0  0  0  0
   -4.5512    0.0178    1.0912 H   0  0  0  0  0  0  0  0  0  0  0  0
   -4.2559    1.7540    1.4310 H   0  0  0  0  0  0  0  0  0  0  0  0
   -1.8559   -3.1363   -0.9593 H   0  0  0  0  0  0  0  0  0  0  0  0
   -3.2650   -3.4654    0.0940 H   0  0  0  0  0  0  0  0  0  0  0  0
   -1.6717   -3.0950    0.8191 H   0  0  0  0  0  0  0  0  0  0  0  0
  1  2  1  0  0  0  0
  2  3  1  0  0  0  0
  3  4  4  0  0  0  0
  4  5  2  0  0  0  0
  4  6  1  0  0  0  0
  6  7  1  0  0  0  0
  7  8  1  0  0  0  0
  7  9  1  0  0  0  0
  9 10  2  0  0  0  0
  9 11  4  0  0  0  0
 11 12  1  0  0  0  0
 12 13  1  0  0  0  0
  7 14  1  0  0  0  0
 14 15  1  0  0  0  0
 15 16  2  0  0  0  0
 15 17  1  0  0  0  0
 17 18  1  0  0  0  0
 15 19  1  0  0  0  0
 19 20  1  0  0  0  0
  1 21  1  0  0  0  0
  1 22  1  0  0  0  0
  1 23  1  0  0  0  0
  2 24  1  0  0  0  0
  2 25  1  0  0  0  0
  6 26  1  0  0  0  0
  6 27  1  0  0  0  0
 12 28  1  0  0  0  0
 12 29  1  0  0  0  0
 13 30  1  0  0  0  0
 13 31  1  0  0  0  0
 13 32  1  0  0  0  0
 18 33  1  0  0  0  0
 18 34  1  0  0  0  0
 18 35  1  0  0  0  0
 20 36  1  0  0  0  0
 20 37  1  0  0  0  0
 20 38  1  0  0  0  0
M  END
