 xtb: 6.7.1 (edcfbbe)
          04092505213D

 41 40  0     0  0            999 V2000
    5.6765   -0.3044    0.3388 C   0  0  0  0  0  0  0  0  0  0  0  0
    4.4969   -1.1206   -0.1475 C   0  0  0  0  0  0  0  0  0  0  0  0
    3.7169   -0.3731   -1.1160 O   0  0  0  0  0  0  0  0  0  0  0  0
    2.4253    0.4463   -0.7404 P   0  0  0  0  0  0  0  0  0  0  0  0
    1.7138    1.3358   -2.3321 S   0  0  0  0  0  0  0  0  0  0  0  0
    2.9366    1.3714    0.4412 O   0  0  0  0  0  0  0  0  0  0  0  0
    2.0653    2.1921    1.2483 C   0  0  0  0  0  0  0  0  0  0  0  0
    1.9515    1.5980    2.6388 C   0  0  0  0  0  0  0  0  0  0  0  0
    1.1293   -0.9468    0.2180 S   0  0  0  0  0  0  0  0  0  0  0  0
    0.0874   -1.3451   -1.2225 C   0  0  0  0  0  0  0  0  0  0  0  0
   -1.5314   -1.9483   -0.7225 S   0  0  0  0  0  0  0  0  0  0  0  0
   -2.4141   -0.1241   -0.0111 P   0  0  0  0  0  0  0  0  0  0  0  0
   -1.3644    1.5122   -0.2286 S   0  0  0  0  0  0  0  0  0  0  0  0
   -2.8753   -0.5094    1.4606 O   0  0  0  0  0  0  0  0  0  0  0  0
   -1.9416   -0.7638    2.5304 C   0  0  0  0  0  0  0  0  0  0  0  0
   -1.6556    0.5049    3.3092 C   0  0  0  0  0  0  0  0  0  0  0  0
   -3.7813   -0.0144   -0.7776 O   0  0  0  0  0  0  0  0  0  0  0  0
   -4.7704   -1.0757   -0.8032 C   0  0  0  0  0  0  0  0  0  0  0  0
   -5.8381   -0.8397    0.2449 C   0  0  0  0  0  0  0  0  0  0  0  0
    6.2708   -0.9088    1.0170 H   0  0  0  0  0  0  0  0  0  0  0  0
    6.2907   -0.0003   -0.5043 H   0  0  0  0  0  0  0  0  0  0  0  0
    5.3315    0.5863    0.8567 H   0  0  0  0  0  0  0  0  0  0  0  0
    3.8453   -1.4131    0.6810 H   0  0  0  0  0  0  0  0  0  0  0  0
    4.8251   -2.0078   -0.6918 H   0  0  0  0  0  0  0  0  0  0  0  0
    2.5357    3.1767    1.2709 H   0  0  0  0  0  0  0  0  0  0  0  0
    1.0877    2.2767    0.7643 H   0  0  0  0  0  0  0  0  0  0  0  0
    1.5002    0.6097    2.5894 H   0  0  0  0  0  0  0  0  0  0  0  0
    2.9364    1.5158    3.0891 H   0  0  0  0  0  0  0  0  0  0  0  0
    1.3299    2.2447    3.2492 H   0  0  0  0  0  0  0  0  0  0  0  0
    0.5484   -2.1494   -1.7910 H   0  0  0  0  0  0  0  0  0  0  0  0
   -0.0127   -0.4391   -1.8265 H   0  0  0  0  0  0  0  0  0  0  0  0
   -2.4368   -1.5112    3.1528 H   0  0  0  0  0  0  0  0  0  0  0  0
   -1.0210   -1.1873    2.1157 H   0  0  0  0  0  0  0  0  0  0  0  0
   -1.2035    1.2488    2.6573 H   0  0  0  0  0  0  0  0  0  0  0  0
   -2.5784    0.9123    3.7123 H   0  0  0  0  0  0  0  0  0  0  0  0
   -0.9743    0.2803    4.1232 H   0  0  0  0  0  0  0  0  0  0  0  0
   -5.1857   -1.0343   -1.8117 H   0  0  0  0  0  0  0  0  0  0  0  0
   -4.2651   -2.0335   -0.6513 H   0  0  0  0  0  0  0  0  0  0  0  0
   -6.5975   -1.6103    0.1563 H   0  0  0  0  0  0  0  0  0  0  0  0
   -5.4043   -0.8735    1.2403 H   0  0  0  0  0  0  0  0  0  0  0  0
   -6.2958    0.1344    0.0952 H   0  0  0  0  0  0  0  0  0  0  0  0
  1  2  1  0  0  0  0
  2  3  1  0  0  0  0
  3  4  2  0  0  0  0
  4  5  2  0  0  0  0
  4  6  2  0  0  0  0
  6  7  1  0  0  0  0
  7  8  1  0  0  0  0
  4  9  1  0  0  0  0
  9 10  1  0  0  0  0
 10 11  1  0  0  0  0
 11 12  1  0  0  0  0
 12 13  2  0  0  0  0
 12 14  2  0  0  0  0
 14 15  1  0  0  0  0
 15 16  1  0  0  0  0
 12 17  2  0  0  0  0
 17 18  1  0  0  0  0
 18 19  1  0  0  0  0
  1 20  1  0  0  0  0
  1 21  1  0  0  0  0
  1 22  1  0  0  0  0
  2 23  1  0  0  0  0
  2 24  1  0  0  0  0
  7 25  1  0  0  0  0
  7 26  1  0  0  0  0
  8 27  1  0  0  0  0
  8 28  1  0  0  0  0
  8 29  1  0  0  0  0
 10 30  1  0  0  0  0
 10 31  1  0  0  0  0
 15 32  1  0  0  0  0
 15 33  1  0  0  0  0
 16 34  1  0  0  0  0
 16 35  1  0  0  0  0
 16 36  1  0  0  0  0
 18 37  1  0  0  0  0
 18 38  1  0  0  0  0
 19 39  1  0  0  0  0
 19 40  1  0  0  0  0
 19 41  1  0  0  0  0
M  END
