 xtb: 6.7.1 (edcfbbe)
          04092505213D

 41 40  0     0  0            999 V2000
    3.2188    2.4482    0.9128 C   0  0  0  0  0  0  0  0  0  0  0  0
    1.7376    2.1895    0.7382 C   0  0  0  0  0  0  0  0  0  0  0  0
    1.4880    0.9234    0.0961 O   0  0  0  0  0  0  0  0  0  0  0  0
    1.7871   -0.4557    0.8063 P   0  0  0  0  0  0  0  0  0  0  0  0
    1.6250   -0.5125    2.7567 S   0  0  0  0  0  0  0  0  0  0  0  0
    3.2491   -0.7675    0.2437 O   0  0  0  0  0  0  0  0  0  0  0  0
    4.1019   -1.7562    0.8383 C   0  0  0  0  0  0  0  0  0  0  0  0
    3.5931   -3.1642    0.6016 C   0  0  0  0  0  0  0  0  0  0  0  0
    0.4861   -1.7408   -0.2722 S   0  0  0  0  0  0  0  0  0  0  0  0
    0.5345   -0.9873   -1.9174 C   0  0  0  0  0  0  0  0  0  0  0  0
   -0.3867    0.5774   -2.0915 S   0  0  0  0  0  0  0  0  0  0  0  0
   -2.0431    0.1792   -0.8604 P   0  0  0  0  0  0  0  0  0  0  0  0
   -2.9752   -1.5260   -1.0499 S   0  0  0  0  0  0  0  0  0  0  0  0
   -3.0291    1.3840   -1.1583 O   0  0  0  0  0  0  0  0  0  0  0  0
   -2.6681    2.7799   -1.0072 C   0  0  0  0  0  0  0  0  0  0  0  0
   -2.3509    3.4022   -2.3522 C   0  0  0  0  0  0  0  0  0  0  0  0
   -1.4020    0.4812    0.5873 O   0  0  0  0  0  0  0  0  0  0  0  0
   -1.9710   -0.0956    1.7757 C   0  0  0  0  0  0  0  0  0  0  0  0
   -3.2908    0.5549    2.1333 C   0  0  0  0  0  0  0  0  0  0  0  0
    3.6395    1.7283    1.6137 H   0  0  0  0  0  0  0  0  0  0  0  0
    3.7314    2.3541   -0.0407 H   0  0  0  0  0  0  0  0  0  0  0  0
    3.3648    3.4494    1.3059 H   0  0  0  0  0  0  0  0  0  0  0  0
    1.2758    2.9140    0.0654 H   0  0  0  0  0  0  0  0  0  0  0  0
    1.2257    2.1955    1.7056 H   0  0  0  0  0  0  0  0  0  0  0  0
    5.0704   -1.5920    0.3640 H   0  0  0  0  0  0  0  0  0  0  0  0
    4.1729   -1.5518    1.9116 H   0  0  0  0  0  0  0  0  0  0  0  0
    3.4607   -3.3492   -0.4613 H   0  0  0  0  0  0  0  0  0  0  0  0
    4.3057   -3.8768    1.0044 H   0  0  0  0  0  0  0  0  0  0  0  0
    2.6345   -3.3024    1.1022 H   0  0  0  0  0  0  0  0  0  0  0  0
    0.0915   -1.7287   -2.5800 H   0  0  0  0  0  0  0  0  0  0  0  0
    1.5618   -0.7656   -2.1971 H   0  0  0  0  0  0  0  0  0  0  0  0
   -3.5502    3.2409   -0.5588 H   0  0  0  0  0  0  0  0  0  0  0  0
   -1.8215    2.8565   -0.3201 H   0  0  0  0  0  0  0  0  0  0  0  0
   -1.4657    2.9435   -2.7877 H   0  0  0  0  0  0  0  0  0  0  0  0
   -3.1873    3.2603   -3.0308 H   0  0  0  0  0  0  0  0  0  0  0  0
   -2.1742    4.4647   -2.2176 H   0  0  0  0  0  0  0  0  0  0  0  0
   -2.0993   -1.1713    1.6119 H   0  0  0  0  0  0  0  0  0  0  0  0
   -1.2138    0.0626    2.5471 H   0  0  0  0  0  0  0  0  0  0  0  0
   -3.1622    1.6260    2.2667 H   0  0  0  0  0  0  0  0  0  0  0  0
   -4.0142    0.3769    1.3375 H   0  0  0  0  0  0  0  0  0  0  0  0
   -3.6645    0.1195    3.0546 H   0  0  0  0  0  0  0  0  0  0  0  0
  1  2  1  0  0  0  0
  2  3  1  0  0  0  0
  3  4  2  0  0  0  0
  4  5  2  0  0  0  0
  4  6  1  0  0  0  0
  6  7  1  0  0  0  0
  7  8  1  0  0  0  0
  4  9  1  0  0  0  0
  9 10  1  0  0  0  0
 10 11  1  0  0  0  0
 11 12  1  0  0  0  0
 12 13  2  0  0  0  0
 12 14  2  0  0  0  0
 14 15  1  0  0  0  0
 15 16  1  0  0  0  0
 12 17  1  0  0  0  0
 17 18  1  0  0  0  0
 18 19  1  0  0  0  0
  1 20  1  0  0  0  0
  1 21  1  0  0  0  0
  1 22  1  0  0  0  0
  2 23  1  0  0  0  0
  2 24  1  0  0  0  0
  7 25  1  0  0  0  0
  7 26  1  0  0  0  0
  8 27  1  0  0  0  0
  8 28  1  0  0  0  0
  8 29  1  0  0  0  0
 10 30  1  0  0  0  0
 10 31  1  0  0  0  0
 15 32  1  0  0  0  0
 15 33  1  0  0  0  0
 16 34  1  0  0  0  0
 16 35  1  0  0  0  0
 16 36  1  0  0  0  0
 18 37  1  0  0  0  0
 18 38  1  0  0  0  0
 19 39  1  0  0  0  0
 19 40  1  0  0  0  0
 19 41  1  0  0  0  0
M  END
