 xtb: 6.7.1 (edcfbbe)
          04092505203D

 41 40  0     0  0            999 V2000
    4.6797   -1.3883   -0.9341 C   0  0  0  0  0  0  0  0  0  0  0  0
    4.6327    0.0777   -0.5551 C   0  0  0  0  0  0  0  0  0  0  0  0
    3.4821    0.3916    0.2484 O   0  0  0  0  0  0  0  0  0  0  0  0
    1.9991    0.3770   -0.3331 P   0  0  0  0  0  0  0  0  0  0  0  0
    1.8781    1.0619   -2.1719 S   0  0  0  0  0  0  0  0  0  0  0  0
    1.2426    1.1732    0.8085 O   0  0  0  0  0  0  0  0  0  0  0  0
    1.3535    2.6091    0.9073 C   0  0  0  0  0  0  0  0  0  0  0  0
    0.5176    3.0544    2.0878 C   0  0  0  0  0  0  0  0  0  0  0  0
    1.3169   -1.5675    0.0330 S   0  0  0  0  0  0  0  0  0  0  0  0
    0.0054   -1.7055   -1.2318 C   0  0  0  0  0  0  0  0  0  0  0  0
   -1.6340   -1.9754   -0.5264 S   0  0  0  0  0  0  0  0  0  0  0  0
   -1.9866   -0.0176    0.2270 P   0  0  0  0  0  0  0  0  0  0  0  0
   -1.4648    1.4707   -0.9308 S   0  0  0  0  0  0  0  0  0  0  0  0
   -1.3029    0.0282    1.6462 O   0  0  0  0  0  0  0  0  0  0  0  0
   -1.6552   -0.9001    2.7087 C   0  0  0  0  0  0  0  0  0  0  0  0
   -0.3901   -1.4925    3.2942 C   0  0  0  0  0  0  0  0  0  0  0  0
   -3.5281   -0.0555    0.6225 O   0  0  0  0  0  0  0  0  0  0  0  0
   -4.5842    0.2617   -0.3013 C   0  0  0  0  0  0  0  0  0  0  0  0
   -4.6988   -0.7527   -1.4205 C   0  0  0  0  0  0  0  0  0  0  0  0
    3.8677   -1.6195   -1.6219 H   0  0  0  0  0  0  0  0  0  0  0  0
    5.6253   -1.6014   -1.4220 H   0  0  0  0  0  0  0  0  0  0  0  0
    4.5794   -2.0110   -0.0488 H   0  0  0  0  0  0  0  0  0  0  0  0
    4.6088    0.7065   -1.4510 H   0  0  0  0  0  0  0  0  0  0  0  0
    5.4763    0.3595    0.0763 H   0  0  0  0  0  0  0  0  0  0  0  0
    2.4081    2.8675    1.0360 H   0  0  0  0  0  0  0  0  0  0  0  0
    0.9875    3.0448   -0.0292 H   0  0  0  0  0  0  0  0  0  0  0  0
    0.8897    2.5988    3.0006 H   0  0  0  0  0  0  0  0  0  0  0  0
    0.5658    4.1351    2.1720 H   0  0  0  0  0  0  0  0  0  0  0  0
   -0.5154    2.7502    1.9371 H   0  0  0  0  0  0  0  0  0  0  0  0
    0.2178   -2.5821   -1.8381 H   0  0  0  0  0  0  0  0  0  0  0  0
    0.0091   -0.7955   -1.8381 H   0  0  0  0  0  0  0  0  0  0  0  0
   -2.2032   -0.3140    3.4482 H   0  0  0  0  0  0  0  0  0  0  0  0
   -2.3086   -1.6765    2.3029 H   0  0  0  0  0  0  0  0  0  0  0  0
   -0.6479   -2.0837    4.1670 H   0  0  0  0  0  0  0  0  0  0  0  0
    0.1095   -2.1274    2.5665 H   0  0  0  0  0  0  0  0  0  0  0  0
    0.2912   -0.6976    3.5853 H   0  0  0  0  0  0  0  0  0  0  0  0
   -5.4774    0.2736    0.3249 H   0  0  0  0  0  0  0  0  0  0  0  0
   -4.3991    1.2617   -0.7054 H   0  0  0  0  0  0  0  0  0  0  0  0
   -4.7530   -1.7600   -1.0156 H   0  0  0  0  0  0  0  0  0  0  0  0
   -5.5943   -0.5463   -1.9978 H   0  0  0  0  0  0  0  0  0  0  0  0
   -3.8337   -0.6836   -2.0780 H   0  0  0  0  0  0  0  0  0  0  0  0
  1  2  1  0  0  0  0
  2  3  1  0  0  0  0
  3  4  2  0  0  0  0
  4  5  2  0  0  0  0
  4  6  2  0  0  0  0
  6  7  1  0  0  0  0
  7  8  1  0  0  0  0
  4  9  1  0  0  0  0
  9 10  1  0  0  0  0
 10 11  1  0  0  0  0
 11 12  1  0  0  0  0
 12 13  2  0  0  0  0
 12 14  2  0  0  0  0
 14 15  1  0  0  0  0
 15 16  1  0  0  0  0
 12 17  2  0  0  0  0
 17 18  1  0  0  0  0
 18 19  1  0  0  0  0
  1 20  1  0  0  0  0
  1 21  1  0  0  0  0
  1 22  1  0  0  0  0
  2 23  1  0  0  0  0
  2 24  1  0  0  0  0
  7 25  1  0  0  0  0
  7 26  1  0  0  0  0
  8 27  1  0  0  0  0
  8 28  1  0  0  0  0
  8 29  1  0  0  0  0
 10 30  1  0  0  0  0
 10 31  1  0  0  0  0
 15 32  1  0  0  0  0
 15 33  1  0  0  0  0
 16 34  1  0  0  0  0
 16 35  1  0  0  0  0
 16 36  1  0  0  0  0
 18 37  1  0  0  0  0
 18 38  1  0  0  0  0
 19 39  1  0  0  0  0
 19 40  1  0  0  0  0
 19 41  1  0  0  0  0
M  END
