 xtb: 6.7.1 (edcfbbe)
          04092505213D

 41 40  0     0  0            999 V2000
    2.7697   -1.0066   -2.7811 C   0  0  0  0  0  0  0  0  0  0  0  0
    3.5044   -0.1195   -1.7963 C   0  0  0  0  0  0  0  0  0  0  0  0
    2.5868    0.5911   -0.9307 O   0  0  0  0  0  0  0  0  0  0  0  0
    2.0460    0.0394    0.4488 P   0  0  0  0  0  0  0  0  0  0  0  0
    1.0840    1.4027    1.4696 S   0  0  0  0  0  0  0  0  0  0  0  0
    3.3220   -0.5458    1.2278 O   0  0  0  0  0  0  0  0  0  0  0  0
    4.1064    0.2515    2.1333 C   0  0  0  0  0  0  0  0  0  0  0  0
    4.9573    1.2702    1.4013 C   0  0  0  0  0  0  0  0  0  0  0  0
    1.0905   -1.8142    0.1157 S   0  0  0  0  0  0  0  0  0  0  0  0
   -0.2149   -1.6692    1.3727 C   0  0  0  0  0  0  0  0  0  0  0  0
   -1.8938   -1.5701    0.6872 S   0  0  0  0  0  0  0  0  0  0  0  0
   -1.9095    0.2604   -0.4026 P   0  0  0  0  0  0  0  0  0  0  0  0
   -0.5059    0.5964   -1.7278 S   0  0  0  0  0  0  0  0  0  0  0  0
   -2.0373    1.4453    0.6219 O   0  0  0  0  0  0  0  0  0  0  0  0
   -2.7424    1.4365    1.8869 C   0  0  0  0  0  0  0  0  0  0  0  0
   -4.2155    1.1257    1.7375 C   0  0  0  0  0  0  0  0  0  0  0  0
   -3.3572    0.1871   -1.0499 O   0  0  0  0  0  0  0  0  0  0  0  0
   -3.6382   -0.6547   -2.1857 C   0  0  0  0  0  0  0  0  0  0  0  0
   -4.8628   -0.1022   -2.8867 C   0  0  0  0  0  0  0  0  0  0  0  0
    3.4669   -1.3496   -3.5389 H   0  0  0  0  0  0  0  0  0  0  0  0
    2.3356   -1.8686   -2.2792 H   0  0  0  0  0  0  0  0  0  0  0  0
    1.9675   -0.4442   -3.2538 H   0  0  0  0  0  0  0  0  0  0  0  0
    4.0386    0.6811   -2.3109 H   0  0  0  0  0  0  0  0  0  0  0  0
    4.1964   -0.6988   -1.1792 H   0  0  0  0  0  0  0  0  0  0  0  0
    3.4266    0.7516    2.8305 H   0  0  0  0  0  0  0  0  0  0  0  0
    4.7159   -0.4792    2.6667 H   0  0  0  0  0  0  0  0  0  0  0  0
    5.5511    1.8248    2.1211 H   0  0  0  0  0  0  0  0  0  0  0  0
    5.6188    0.7786    0.6926 H   0  0  0  0  0  0  0  0  0  0  0  0
    4.3155    1.9674    0.8624 H   0  0  0  0  0  0  0  0  0  0  0  0
   -0.0128   -0.7853    1.9821 H   0  0  0  0  0  0  0  0  0  0  0  0
   -0.2091   -2.5773    1.9699 H   0  0  0  0  0  0  0  0  0  0  0  0
   -2.2534    0.7164    2.5483 H   0  0  0  0  0  0  0  0  0  0  0  0
   -2.5734    2.4460    2.2654 H   0  0  0  0  0  0  0  0  0  0  0  0
   -4.3545    0.0988    1.4070 H   0  0  0  0  0  0  0  0  0  0  0  0
   -4.7009    1.2582    2.6995 H   0  0  0  0  0  0  0  0  0  0  0  0
   -4.6671    1.7949    1.0102 H   0  0  0  0  0  0  0  0  0  0  0  0
   -2.7642   -0.6542   -2.8459 H   0  0  0  0  0  0  0  0  0  0  0  0
   -3.8109   -1.6695   -1.8183 H   0  0  0  0  0  0  0  0  0  0  0  0
   -4.6699    0.9105   -3.2299 H   0  0  0  0  0  0  0  0  0  0  0  0
   -5.0980   -0.7307   -3.7391 H   0  0  0  0  0  0  0  0  0  0  0  0
   -5.7074   -0.0883   -2.2043 H   0  0  0  0  0  0  0  0  0  0  0  0
  1  2  1  0  0  0  0
  2  3  1  0  0  0  0
  3  4  2  0  0  0  0
  4  5  2  0  0  0  0
  4  6  1  0  0  0  0
  6  7  1  0  0  0  0
  7  8  1  0  0  0  0
  4  9  1  0  0  0  0
  9 10  1  0  0  0  0
 10 11  1  0  0  0  0
 11 12  1  0  0  0  0
 12 13  2  0  0  0  0
 12 14  2  0  0  0  0
 14 15  1  0  0  0  0
 15 16  1  0  0  0  0
 12 17  2  0  0  0  0
 17 18  1  0  0  0  0
 18 19  1  0  0  0  0
  1 20  1  0  0  0  0
  1 21  1  0  0  0  0
  1 22  1  0  0  0  0
  2 23  1  0  0  0  0
  2 24  1  0  0  0  0
  7 25  1  0  0  0  0
  7 26  1  0  0  0  0
  8 27  1  0  0  0  0
  8 28  1  0  0  0  0
  8 29  1  0  0  0  0
 10 30  1  0  0  0  0
 10 31  1  0  0  0  0
 15 32  1  0  0  0  0
 15 33  1  0  0  0  0
 16 34  1  0  0  0  0
 16 35  1  0  0  0  0
 16 36  1  0  0  0  0
 18 37  1  0  0  0  0
 18 38  1  0  0  0  0
 19 39  1  0  0  0  0
 19 40  1  0  0  0  0
 19 41  1  0  0  0  0
M  END
