 xtb: 6.7.1 (edcfbbe)
          04092505203D

 41 40  0     0  0            999 V2000
    3.7138    0.0271    2.2230 C   0  0  0  0  0  0  0  0  0  0  0  0
    4.1545   -0.7132    0.9776 C   0  0  0  0  0  0  0  0  0  0  0  0
    3.6357   -0.1250   -0.2383 O   0  0  0  0  0  0  0  0  0  0  0  0
    2.1057    0.0455   -0.6252 P   0  0  0  0  0  0  0  0  0  0  0  0
    1.9275    0.2482   -2.5609 S   0  0  0  0  0  0  0  0  0  0  0  0
    1.5195    1.2448    0.2576 O   0  0  0  0  0  0  0  0  0  0  0  0
    1.5207    2.5992   -0.2155 C   0  0  0  0  0  0  0  0  0  0  0  0
    2.9171    3.1851   -0.2242 C   0  0  0  0  0  0  0  0  0  0  0  0
    1.1892   -1.6178    0.2778 S   0  0  0  0  0  0  0  0  0  0  0  0
   -0.1714   -1.9387   -0.8955 C   0  0  0  0  0  0  0  0  0  0  0  0
   -1.7760   -1.9751   -0.0801 S   0  0  0  0  0  0  0  0  0  0  0  0
   -1.9827    0.1258    0.2042 P   0  0  0  0  0  0  0  0  0  0  0  0
   -1.4203    1.2351   -1.3125 S   0  0  0  0  0  0  0  0  0  0  0  0
   -1.1604    0.5411    1.4800 O   0  0  0  0  0  0  0  0  0  0  0  0
   -1.0301   -0.1865    2.7294 C   0  0  0  0  0  0  0  0  0  0  0  0
   -2.3517   -0.6207    3.3243 C   0  0  0  0  0  0  0  0  0  0  0  0
   -3.4840    0.2949    0.6853 O   0  0  0  0  0  0  0  0  0  0  0  0
   -4.6339   -0.3064    0.0631 C   0  0  0  0  0  0  0  0  0  0  0  0
   -4.7480    0.0231   -1.4104 C   0  0  0  0  0  0  0  0  0  0  0  0
    2.6292    0.0007    2.3104 H   0  0  0  0  0  0  0  0  0  0  0  0
    4.1512   -0.4530    3.0926 H   0  0  0  0  0  0  0  0  0  0  0  0
    4.0394    1.0633    2.1841 H   0  0  0  0  0  0  0  0  0  0  0  0
    3.8363   -1.7583    1.0143 H   0  0  0  0  0  0  0  0  0  0  0  0
    5.2353   -0.6608    0.8373 H   0  0  0  0  0  0  0  0  0  0  0  0
    1.0832    2.6201   -1.2197 H   0  0  0  0  0  0  0  0  0  0  0  0
    0.8556    3.1226    0.4735 H   0  0  0  0  0  0  0  0  0  0  0  0
    3.3443    3.1617    0.7747 H   0  0  0  0  0  0  0  0  0  0  0  0
    3.5504    2.6073   -0.8977 H   0  0  0  0  0  0  0  0  0  0  0  0
    2.8727    4.2117   -0.5738 H   0  0  0  0  0  0  0  0  0  0  0  0
   -0.0198   -2.9257   -1.3248 H   0  0  0  0  0  0  0  0  0  0  0  0
   -0.1581   -1.1642   -1.6685 H   0  0  0  0  0  0  0  0  0  0  0  0
   -0.3824   -1.0494    2.5481 H   0  0  0  0  0  0  0  0  0  0  0  0
   -0.5168    0.5292    3.3738 H   0  0  0  0  0  0  0  0  0  0  0  0
   -3.0254    0.2278    3.4100 H   0  0  0  0  0  0  0  0  0  0  0  0
   -2.8175   -1.3844    2.7052 H   0  0  0  0  0  0  0  0  0  0  0  0
   -2.1678   -1.0340    4.3114 H   0  0  0  0  0  0  0  0  0  0  0  0
   -4.5758   -1.3881    0.2124 H   0  0  0  0  0  0  0  0  0  0  0  0
   -5.4734    0.1028    0.6277 H   0  0  0  0  0  0  0  0  0  0  0  0
   -4.7402    1.1002   -1.5609 H   0  0  0  0  0  0  0  0  0  0  0  0
   -3.9095   -0.4034   -1.9593 H   0  0  0  0  0  0  0  0  0  0  0  0
   -5.6726   -0.3885   -1.8021 H   0  0  0  0  0  0  0  0  0  0  0  0
  1  2  1  0  0  0  0
  2  3  1  0  0  0  0
  3  4  2  0  0  0  0
  4  5  2  0  0  0  0
  4  6  1  0  0  0  0
  6  7  1  0  0  0  0
  7  8  1  0  0  0  0
  4  9  1  0  0  0  0
  9 10  1  0  0  0  0
 10 11  1  0  0  0  0
 11 12  1  0  0  0  0
 12 13  2  0  0  0  0
 12 14  2  0  0  0  0
 14 15  1  0  0  0  0
 15 16  1  0  0  0  0
 12 17  2  0  0  0  0
 17 18  1  0  0  0  0
 18 19  1  0  0  0  0
  1 20  1  0  0  0  0
  1 21  1  0  0  0  0
  1 22  1  0  0  0  0
  2 23  1  0  0  0  0
  2 24  1  0  0  0  0
  7 25  1  0  0  0  0
  7 26  1  0  0  0  0
  8 27  1  0  0  0  0
  8 28  1  0  0  0  0
  8 29  1  0  0  0  0
 10 30  1  0  0  0  0
 10 31  1  0  0  0  0
 15 32  1  0  0  0  0
 15 33  1  0  0  0  0
 16 34  1  0  0  0  0
 16 35  1  0  0  0  0
 16 36  1  0  0  0  0
 18 37  1  0  0  0  0
 18 38  1  0  0  0  0
 19 39  1  0  0  0  0
 19 40  1  0  0  0  0
 19 41  1  0  0  0  0
M  END
