 xtb: 6.7.1 (edcfbbe)
          04092507313D

 38 37  0     0  0            999 V2000
    5.0667   -0.5217    0.4733 C   0  0  0  0  0  0  0  0  0  0  0  0
    4.6949   -1.3946   -0.7146 C   0  0  0  0  0  0  0  0  0  0  0  0
    3.2827   -1.6816   -0.7242 O   0  0  0  0  0  0  0  0  0  0  0  0
    2.4635   -0.7889   -1.2394 C   0  0  0  0  0  0  0  0  0  0  0  0
    2.8123    0.2589   -1.7432 O   0  0  0  0  0  0  0  0  0  0  0  0
    1.0216   -1.2398   -1.1375 C   0  0  0  0  0  0  0  0  0  0  0  0
    0.1057   -0.1170   -1.5918 C   0  0  0  0  0  0  0  0  0  0  0  0
    0.2515    0.1126   -2.6508 H   0  0  0  0  0  0  0  0  0  0  0  0
    0.2864    1.1739   -0.8168 C   0  0  0  0  0  0  0  0  0  0  0  0
   -0.1191    2.2431   -1.2207 O   0  0  0  0  0  0  0  0  0  0  0  0
    0.8887    0.9931    0.3346 O   0  0  0  0  0  0  0  0  0  0  0  0
    1.1115    2.1472    1.1672 C   0  0  0  0  0  0  0  0  0  0  0  0
    1.8500    1.6899    2.4086 C   0  0  0  0  0  0  0  0  0  0  0  0
   -1.6592   -0.5692   -1.4724 S   0  0  0  0  0  0  0  0  0  0  0  0
   -2.0546   -0.1993    0.5912 P   0  0  0  0  0  0  0  0  0  0  0  0
   -0.9336   -1.0468    1.9473 S   0  0  0  0  0  0  0  0  0  0  0  0
   -2.1554    1.3675    0.7954 O   0  0  0  0  0  0  0  0  0  0  0  0
   -3.0133    2.2219    0.0093 C   0  0  0  0  0  0  0  0  0  0  0  0
   -3.5939   -0.6166    0.6549 O   0  0  0  0  0  0  0  0  0  0  0  0
   -3.9886   -1.9945    0.6068 C   0  0  0  0  0  0  0  0  0  0  0  0
    4.7318   -0.9862    1.3969 H   0  0  0  0  0  0  0  0  0  0  0  0
    6.1437   -0.3946    0.5041 H   0  0  0  0  0  0  0  0  0  0  0  0
    4.5991    0.4559    0.3760 H   0  0  0  0  0  0  0  0  0  0  0  0
    5.1675   -2.3745   -0.6526 H   0  0  0  0  0  0  0  0  0  0  0  0
    4.9574   -0.9002   -1.6544 H   0  0  0  0  0  0  0  0  0  0  0  0
    0.8249   -1.5227   -0.1004 H   0  0  0  0  0  0  0  0  0  0  0  0
    0.8764   -2.1223   -1.7623 H   0  0  0  0  0  0  0  0  0  0  0  0
    1.6833    2.8774    0.5859 H   0  0  0  0  0  0  0  0  0  0  0  0
    0.1365    2.5801    1.4133 H   0  0  0  0  0  0  0  0  0  0  0  0
    1.9919    2.5351    3.0731 H   0  0  0  0  0  0  0  0  0  0  0  0
    1.2715    0.9227    2.9167 H   0  0  0  0  0  0  0  0  0  0  0  0
    2.8173    1.2762    2.1393 H   0  0  0  0  0  0  0  0  0  0  0  0
   -3.8574    1.6599   -0.3835 H   0  0  0  0  0  0  0  0  0  0  0  0
   -2.4227    2.6509   -0.8010 H   0  0  0  0  0  0  0  0  0  0  0  0
   -3.3535    3.0006    0.6871 H   0  0  0  0  0  0  0  0  0  0  0  0
   -3.8843   -2.3727   -0.4094 H   0  0  0  0  0  0  0  0  0  0  0  0
   -5.0295   -2.0106    0.9196 H   0  0  0  0  0  0  0  0  0  0  0  0
   -3.3751   -2.5831    1.2902 H   0  0  0  0  0  0  0  0  0  0  0  0
  1  2  1  0  0  0  0
  2  3  1  0  0  0  0
  3  4  1  0  0  0  0
  4  5  2  0  0  0  0
  4  6  1  0  0  0  0
  6  7  1  0  0  0  0
  7  8  1  0  0  0  0
  7  9  1  0  0  0  0
  9 10  2  0  0  0  0
  9 11  1  0  0  0  0
 11 12  1  0  0  0  0
 12 13  1  0  0  0  0
  7 14  1  0  0  0  0
 14 15  1  0  0  0  0
 15 16  2  0  0  0  0
 15 17  2  0  0  0  0
 17 18  1  0  0  0  0
 15 19  2  0  0  0  0
 19 20  1  0  0  0  0
  1 21  1  0  0  0  0
  1 22  1  0  0  0  0
  1 23  1  0  0  0  0
  2 24  1  0  0  0  0
  2 25  1  0  0  0  0
  6 26  1  0  0  0  0
  6 27  1  0  0  0  0
 12 28  1  0  0  0  0
 12 29  1  0  0  0  0
 13 30  1  0  0  0  0
 13 31  1  0  0  0  0
 13 32  1  0  0  0  0
 18 33  1  0  0  0  0
 18 34  1  0  0  0  0
 18 35  1  0  0  0  0
 20 36  1  0  0  0  0
 20 37  1  0  0  0  0
 20 38  1  0  0  0  0
M  END
