 xtb: 6.7.1 (edcfbbe)
          04092507313D

 38 37  0     0  0            999 V2000
    4.2311   -3.1989   -2.0322 C   0  0  0  0  0  0  0  0  0  0  0  0
    2.7258   -3.1787   -1.8186 C   0  0  0  0  0  0  0  0  0  0  0  0
    2.2905   -1.8866   -1.3555 O   0  0  0  0  0  0  0  0  0  0  0  0
    2.3004   -1.6466   -0.0595 C   0  0  0  0  0  0  0  0  0  0  0  0
    2.6465   -2.4426    0.7850 O   0  0  0  0  0  0  0  0  0  0  0  0
    1.8324   -0.2422    0.2721 C   0  0  0  0  0  0  0  0  0  0  0  0
    0.9293    0.3560   -0.8025 C   0  0  0  0  0  0  0  0  0  0  0  0
    1.4590    0.3977   -1.7576 H   0  0  0  0  0  0  0  0  0  0  0  0
    0.4639    1.7461   -0.4182 C   0  0  0  0  0  0  0  0  0  0  0  0
   -0.7139    2.0295   -0.3135 O   0  0  0  0  0  0  0  0  0  0  0  0
    1.4583    2.5649   -0.2312 O   0  0  0  0  0  0  0  0  0  0  0  0
    1.1691    3.9021    0.2364 C   0  0  0  0  0  0  0  0  0  0  0  0
    1.0959    3.9270    1.7540 C   0  0  0  0  0  0  0  0  0  0  0  0
   -0.5435   -0.6609   -1.1300 S   0  0  0  0  0  0  0  0  0  0  0  0
   -1.8117   -0.1164    0.5048 P   0  0  0  0  0  0  0  0  0  0  0  0
   -1.1241    0.5713    2.2074 S   0  0  0  0  0  0  0  0  0  0  0  0
   -3.1280    0.5588   -0.0992 O   0  0  0  0  0  0  0  0  0  0  0  0
   -3.4515    1.9457   -0.1860 C   0  0  0  0  0  0  0  0  0  0  0  0
   -2.4198   -1.5548    0.8366 O   0  0  0  0  0  0  0  0  0  0  0  0
   -3.1008   -2.3712   -0.1288 C   0  0  0  0  0  0  0  0  0  0  0  0
    4.7446   -3.0541   -1.0844 H   0  0  0  0  0  0  0  0  0  0  0  0
    4.5211   -4.1591   -2.4457 H   0  0  0  0  0  0  0  0  0  0  0  0
    4.5229   -2.4097   -2.7193 H   0  0  0  0  0  0  0  0  0  0  0  0
    2.4283   -3.9316   -1.0834 H   0  0  0  0  0  0  0  0  0  0  0  0
    2.1865   -3.3262   -2.7543 H   0  0  0  0  0  0  0  0  0  0  0  0
    2.7176    0.3893    0.3843 H   0  0  0  0  0  0  0  0  0  0  0  0
    1.3252   -0.2787    1.2403 H   0  0  0  0  0  0  0  0  0  0  0  0
    1.9987    4.5031   -0.1353 H   0  0  0  0  0  0  0  0  0  0  0  0
    0.2255    4.2308   -0.2056 H   0  0  0  0  0  0  0  0  0  0  0  0
    2.0416    3.6104    2.1842 H   0  0  0  0  0  0  0  0  0  0  0  0
    0.8710    4.9347    2.0866 H   0  0  0  0  0  0  0  0  0  0  0  0
    0.3142    3.2557    2.1069 H   0  0  0  0  0  0  0  0  0  0  0  0
   -4.5386    1.9886   -0.1878 H   0  0  0  0  0  0  0  0  0  0  0  0
   -3.0438    2.3619   -1.1051 H   0  0  0  0  0  0  0  0  0  0  0  0
   -3.0480    2.4832    0.6716 H   0  0  0  0  0  0  0  0  0  0  0  0
   -3.3097   -3.3059    0.3856 H   0  0  0  0  0  0  0  0  0  0  0  0
   -2.4581   -2.5439   -0.9928 H   0  0  0  0  0  0  0  0  0  0  0  0
   -4.0239   -1.8858   -0.4402 H   0  0  0  0  0  0  0  0  0  0  0  0
  1  2  1  0  0  0  0
  2  3  1  0  0  0  0
  3  4  1  0  0  0  0
  4  5  2  0  0  0  0
  4  6  1  0  0  0  0
  6  7  1  0  0  0  0
  7  8  1  0  0  0  0
  7  9  1  0  0  0  0
  9 10  2  0  0  0  0
  9 11  4  0  0  0  0
 11 12  1  0  0  0  0
 12 13  1  0  0  0  0
  7 14  1  0  0  0  0
 14 15  1  0  0  0  0
 15 16  2  0  0  0  0
 15 17  2  0  0  0  0
 17 18  1  0  0  0  0
 15 19  1  0  0  0  0
 19 20  1  0  0  0  0
  1 21  1  0  0  0  0
  1 22  1  0  0  0  0
  1 23  1  0  0  0  0
  2 24  1  0  0  0  0
  2 25  1  0  0  0  0
  6 26  1  0  0  0  0
  6 27  1  0  0  0  0
 12 28  1  0  0  0  0
 12 29  1  0  0  0  0
 13 30  1  0  0  0  0
 13 31  1  0  0  0  0
 13 32  1  0  0  0  0
 18 33  1  0  0  0  0
 18 34  1  0  0  0  0
 18 35  1  0  0  0  0
 20 36  1  0  0  0  0
 20 37  1  0  0  0  0
 20 38  1  0  0  0  0
M  END
