 xtb: 6.7.1 (edcfbbe)
          04092505213D

 41 40  0     0  0            999 V2000
    2.0657    2.8388    0.3150 C   0  0  0  0  0  0  0  0  0  0  0  0
    1.4616    2.0306    1.4470 C   0  0  0  0  0  0  0  0  0  0  0  0
    2.2474    0.8428    1.6621 O   0  0  0  0  0  0  0  0  0  0  0  0
    1.7370   -0.6329    1.3562 P   0  0  0  0  0  0  0  0  0  0  0  0
    0.3542   -1.3476    2.5399 S   0  0  0  0  0  0  0  0  0  0  0  0
    3.0684   -1.4526    1.5455 O   0  0  0  0  0  0  0  0  0  0  0  0
    4.2803   -1.2010    0.7878 C   0  0  0  0  0  0  0  0  0  0  0  0
    4.5075   -2.3121   -0.2177 C   0  0  0  0  0  0  0  0  0  0  0  0
    1.3132   -0.6235   -0.7323 S   0  0  0  0  0  0  0  0  0  0  0  0
   -0.0868   -1.7782   -0.7510 C   0  0  0  0  0  0  0  0  0  0  0  0
   -1.4967   -1.2218   -1.7515 S   0  0  0  0  0  0  0  0  0  0  0  0
   -1.9781    0.6431   -0.8473 P   0  0  0  0  0  0  0  0  0  0  0  0
   -3.7392    1.3561   -1.3183 S   0  0  0  0  0  0  0  0  0  0  0  0
   -0.7613    1.6197   -1.1452 O   0  0  0  0  0  0  0  0  0  0  0  0
   -0.6951    2.3947   -2.3561 C   0  0  0  0  0  0  0  0  0  0  0  0
   -0.3009    1.5492   -3.5514 C   0  0  0  0  0  0  0  0  0  0  0  0
   -1.6763    0.4478    0.7039 O   0  0  0  0  0  0  0  0  0  0  0  0
   -2.7422    0.1549    1.6252 C   0  0  0  0  0  0  0  0  0  0  0  0
   -3.2736   -1.2541    1.4582 C   0  0  0  0  0  0  0  0  0  0  0  0
    2.0279    2.2701   -0.6112 H   0  0  0  0  0  0  0  0  0  0  0  0
    1.4996    3.7571    0.1957 H   0  0  0  0  0  0  0  0  0  0  0  0
    3.1000    3.0813    0.5423 H   0  0  0  0  0  0  0  0  0  0  0  0
    0.4269    1.7545    1.2272 H   0  0  0  0  0  0  0  0  0  0  0  0
    1.4932    2.5788    2.3908 H   0  0  0  0  0  0  0  0  0  0  0  0
    4.2028   -0.2285    0.2976 H   0  0  0  0  0  0  0  0  0  0  0  0
    5.0743   -1.1724    1.5355 H   0  0  0  0  0  0  0  0  0  0  0  0
    5.4743   -2.1692   -0.6898 H   0  0  0  0  0  0  0  0  0  0  0  0
    4.4936   -3.2753    0.2848 H   0  0  0  0  0  0  0  0  0  0  0  0
    3.7347   -2.3004   -0.9820 H   0  0  0  0  0  0  0  0  0  0  0  0
   -0.4017   -1.9402    0.2831 H   0  0  0  0  0  0  0  0  0  0  0  0
    0.2252   -2.7089   -1.2185 H   0  0  0  0  0  0  0  0  0  0  0  0
   -1.6682    2.8699   -2.5186 H   0  0  0  0  0  0  0  0  0  0  0  0
    0.0554    3.1563   -2.1402 H   0  0  0  0  0  0  0  0  0  0  0  0
   -1.0996    0.8522   -3.8009 H   0  0  0  0  0  0  0  0  0  0  0  0
   -0.1212    2.1975   -4.4029 H   0  0  0  0  0  0  0  0  0  0  0  0
    0.6019    0.9842   -3.3305 H   0  0  0  0  0  0  0  0  0  0  0  0
   -2.2880    0.2910    2.6079 H   0  0  0  0  0  0  0  0  0  0  0  0
   -3.5397    0.8883    1.4719 H   0  0  0  0  0  0  0  0  0  0  0  0
   -2.4849   -1.9798    1.6428 H   0  0  0  0  0  0  0  0  0  0  0  0
   -4.0747   -1.4175    2.1718 H   0  0  0  0  0  0  0  0  0  0  0  0
   -3.6653   -1.3887    0.4500 H   0  0  0  0  0  0  0  0  0  0  0  0
  1  2  1  0  0  0  0
  2  3  1  0  0  0  0
  3  4  2  0  0  0  0
  4  5  2  0  0  0  0
  4  6  2  0  0  0  0
  6  7  1  0  0  0  0
  7  8  1  0  0  0  0
  4  9  1  0  0  0  0
  9 10  1  0  0  0  0
 10 11  1  0  0  0  0
 11 12  1  0  0  0  0
 12 13  2  0  0  0  0
 12 14  2  0  0  0  0
 14 15  1  0  0  0  0
 15 16  1  0  0  0  0
 12 17  1  0  0  0  0
 17 18  1  0  0  0  0
 18 19  1  0  0  0  0
  1 20  1  0  0  0  0
  1 21  1  0  0  0  0
  1 22  1  0  0  0  0
  2 23  1  0  0  0  0
  2 24  1  0  0  0  0
  7 25  1  0  0  0  0
  7 26  1  0  0  0  0
  8 27  1  0  0  0  0
  8 28  1  0  0  0  0
  8 29  1  0  0  0  0
 10 30  1  0  0  0  0
 10 31  1  0  0  0  0
 15 32  1  0  0  0  0
 15 33  1  0  0  0  0
 16 34  1  0  0  0  0
 16 35  1  0  0  0  0
 16 36  1  0  0  0  0
 18 37  1  0  0  0  0
 18 38  1  0  0  0  0
 19 39  1  0  0  0  0
 19 40  1  0  0  0  0
 19 41  1  0  0  0  0
M  END
