 xtb: 6.7.1 (edcfbbe)
          04092505203D

 41 40  0     0  0            999 V2000
    3.4308    1.5248   -1.5884 C   0  0  0  0  0  0  0  0  0  0  0  0
    3.2378    1.8514   -0.1215 C   0  0  0  0  0  0  0  0  0  0  0  0
    2.1148    1.1447    0.4612 O   0  0  0  0  0  0  0  0  0  0  0  0
    2.0346   -0.3957    0.7917 P   0  0  0  0  0  0  0  0  0  0  0  0
    0.5198   -0.6840    2.0018 S   0  0  0  0  0  0  0  0  0  0  0  0
    3.5005   -0.6816    1.3278 O   0  0  0  0  0  0  0  0  0  0  0  0
    4.1090   -1.9827    1.4325 C   0  0  0  0  0  0  0  0  0  0  0  0
    3.2871   -2.9469    2.2614 C   0  0  0  0  0  0  0  0  0  0  0  0
    1.9548   -1.5380   -1.0128 S   0  0  0  0  0  0  0  0  0  0  0  0
    0.1964   -1.3602   -1.3315 C   0  0  0  0  0  0  0  0  0  0  0  0
   -0.2502    0.3887   -1.6403 S   0  0  0  0  0  0  0  0  0  0  0  0
   -2.1534    0.4470   -0.7419 P   0  0  0  0  0  0  0  0  0  0  0  0
   -2.7256   -1.1169    0.3023 S   0  0  0  0  0  0  0  0  0  0  0  0
   -3.0334    0.7133   -2.0311 O   0  0  0  0  0  0  0  0  0  0  0  0
   -4.4474    0.4376   -2.0664 C   0  0  0  0  0  0  0  0  0  0  0  0
   -5.2241    1.3932   -1.1857 C   0  0  0  0  0  0  0  0  0  0  0  0
   -2.2061    1.8847   -0.0611 O   0  0  0  0  0  0  0  0  0  0  0  0
   -1.4501    2.2954    1.0890 C   0  0  0  0  0  0  0  0  0  0  0  0
   -2.1211    1.8740    2.3812 C   0  0  0  0  0  0  0  0  0  0  0  0
    4.1554    2.2149   -2.0090 H   0  0  0  0  0  0  0  0  0  0  0  0
    3.7965    0.5087   -1.7139 H   0  0  0  0  0  0  0  0  0  0  0  0
    2.4880    1.6264   -2.1220 H   0  0  0  0  0  0  0  0  0  0  0  0
    2.9670    2.8990    0.0197 H   0  0  0  0  0  0  0  0  0  0  0  0
    4.1312    1.6164    0.4593 H   0  0  0  0  0  0  0  0  0  0  0  0
    4.2579   -2.3718    0.4218 H   0  0  0  0  0  0  0  0  0  0  0  0
    5.0736   -1.7769    1.9000 H   0  0  0  0  0  0  0  0  0  0  0  0
    3.0883   -2.5291    3.2456 H   0  0  0  0  0  0  0  0  0  0  0  0
    2.3330   -3.1430    1.7738 H   0  0  0  0  0  0  0  0  0  0  0  0
    3.8268   -3.8821    2.3696 H   0  0  0  0  0  0  0  0  0  0  0  0
   -0.3792   -1.7149   -0.4708 H   0  0  0  0  0  0  0  0  0  0  0  0
   -0.0166   -1.9492   -2.2200 H   0  0  0  0  0  0  0  0  0  0  0  0
   -4.7087    0.5482   -3.1194 H   0  0  0  0  0  0  0  0  0  0  0  0
   -4.6062   -0.5974   -1.7468 H   0  0  0  0  0  0  0  0  0  0  0  0
   -4.9966    2.4213   -1.4545 H   0  0  0  0  0  0  0  0  0  0  0  0
   -6.2878    1.2120   -1.3036 H   0  0  0  0  0  0  0  0  0  0  0  0
   -4.9496    1.2337   -0.1434 H   0  0  0  0  0  0  0  0  0  0  0  0
   -0.4374    1.8838    1.0282 H   0  0  0  0  0  0  0  0  0  0  0  0
   -1.4063    3.3827    1.0002 H   0  0  0  0  0  0  0  0  0  0  0  0
   -3.1456    2.2348    2.4093 H   0  0  0  0  0  0  0  0  0  0  0  0
   -2.1235    0.7889    2.4693 H   0  0  0  0  0  0  0  0  0  0  0  0
   -1.5684    2.2844    3.2201 H   0  0  0  0  0  0  0  0  0  0  0  0
  1  2  1  0  0  0  0
  2  3  1  0  0  0  0
  3  4  2  0  0  0  0
  4  5  2  0  0  0  0
  4  6  2  0  0  0  0
  6  7  1  0  0  0  0
  7  8  1  0  0  0  0
  4  9  1  0  0  0  0
  9 10  1  0  0  0  0
 10 11  1  0  0  0  0
 11 12  1  0  0  0  0
 12 13  2  0  0  0  0
 12 14  2  0  0  0  0
 14 15  1  0  0  0  0
 15 16  1  0  0  0  0
 12 17  2  0  0  0  0
 17 18  1  0  0  0  0
 18 19  1  0  0  0  0
  1 20  1  0  0  0  0
  1 21  1  0  0  0  0
  1 22  1  0  0  0  0
  2 23  1  0  0  0  0
  2 24  1  0  0  0  0
  7 25  1  0  0  0  0
  7 26  1  0  0  0  0
  8 27  1  0  0  0  0
  8 28  1  0  0  0  0
  8 29  1  0  0  0  0
 10 30  1  0  0  0  0
 10 31  1  0  0  0  0
 15 32  1  0  0  0  0
 15 33  1  0  0  0  0
 16 34  1  0  0  0  0
 16 35  1  0  0  0  0
 16 36  1  0  0  0  0
 18 37  1  0  0  0  0
 18 38  1  0  0  0  0
 19 39  1  0  0  0  0
 19 40  1  0  0  0  0
 19 41  1  0  0  0  0
M  END
