 xtb: 6.7.1 (edcfbbe)
          04092505213D

 41 40  0     0  0            999 V2000
    1.4207   -1.1378   -2.8342 C   0  0  0  0  0  0  0  0  0  0  0  0
    2.4912   -0.3122   -2.1491 C   0  0  0  0  0  0  0  0  0  0  0  0
    1.9054    0.4766   -1.0821 O   0  0  0  0  0  0  0  0  0  0  0  0
    2.1011    0.1765    0.4491 P   0  0  0  0  0  0  0  0  0  0  0  0
    1.0906    1.4642    1.5218 S   0  0  0  0  0  0  0  0  0  0  0  0
    3.6859    0.1955    0.5629 O   0  0  0  0  0  0  0  0  0  0  0  0
    4.4572   -0.3660    1.6425 C   0  0  0  0  0  0  0  0  0  0  0  0
    4.0414    0.1617    2.9992 C   0  0  0  0  0  0  0  0  0  0  0  0
    1.6309   -1.8660    0.8103 S   0  0  0  0  0  0  0  0  0  0  0  0
   -0.1094   -1.6682    1.2545 C   0  0  0  0  0  0  0  0  0  0  0  0
   -1.2458   -1.7728   -0.1643 S   0  0  0  0  0  0  0  0  0  0  0  0
   -2.0113    0.1927   -0.3812 P   0  0  0  0  0  0  0  0  0  0  0  0
   -1.0970    1.5389   -1.4851 S   0  0  0  0  0  0  0  0  0  0  0  0
   -2.2057    0.5857    1.1424 O   0  0  0  0  0  0  0  0  0  0  0  0
   -2.3789    1.9510    1.5609 C   0  0  0  0  0  0  0  0  0  0  0  0
   -3.7336    2.4835    1.1485 C   0  0  0  0  0  0  0  0  0  0  0  0
   -3.5125   -0.0962   -0.8252 O   0  0  0  0  0  0  0  0  0  0  0  0
   -3.9343   -0.9721   -1.8854 C   0  0  0  0  0  0  0  0  0  0  0  0
   -3.0929   -0.8420   -3.1375 C   0  0  0  0  0  0  0  0  0  0  0  0
    1.8450   -1.6139   -3.7121 H   0  0  0  0  0  0  0  0  0  0  0  0
    1.0328   -1.9043   -2.1662 H   0  0  0  0  0  0  0  0  0  0  0  0
    0.6022   -0.4889   -3.1384 H   0  0  0  0  0  0  0  0  0  0  0  0
    2.9187    0.4241   -2.8312 H   0  0  0  0  0  0  0  0  0  0  0  0
    3.2843   -0.9408   -1.7377 H   0  0  0  0  0  0  0  0  0  0  0  0
    4.3565   -1.4540    1.6027 H   0  0  0  0  0  0  0  0  0  0  0  0
    5.4813   -0.0777    1.3988 H   0  0  0  0  0  0  0  0  0  0  0  0
    4.7111   -0.2297    3.7581 H   0  0  0  0  0  0  0  0  0  0  0  0
    4.0781    1.2486    3.0112 H   0  0  0  0  0  0  0  0  0  0  0  0
    3.0230   -0.1484    3.2287 H   0  0  0  0  0  0  0  0  0  0  0  0
   -0.2429   -0.7078    1.7563 H   0  0  0  0  0  0  0  0  0  0  0  0
   -0.3565   -2.4998    1.9087 H   0  0  0  0  0  0  0  0  0  0  0  0
   -2.2607    1.9124    2.6447 H   0  0  0  0  0  0  0  0  0  0  0  0
   -1.5708    2.5545    1.1334 H   0  0  0  0  0  0  0  0  0  0  0  0
   -4.5214    1.8416    1.5334 H   0  0  0  0  0  0  0  0  0  0  0  0
   -3.8584    3.4894    1.5366 H   0  0  0  0  0  0  0  0  0  0  0  0
   -3.7991    2.5088    0.0611 H   0  0  0  0  0  0  0  0  0  0  0  0
   -3.9007   -1.9967   -1.5042 H   0  0  0  0  0  0  0  0  0  0  0  0
   -4.9696   -0.6781   -2.0676 H   0  0  0  0  0  0  0  0  0  0  0  0
   -3.0813    0.1892   -3.4833 H   0  0  0  0  0  0  0  0  0  0  0  0
   -2.0680   -1.1488   -2.9281 H   0  0  0  0  0  0  0  0  0  0  0  0
   -3.5009   -1.4797   -3.9150 H   0  0  0  0  0  0  0  0  0  0  0  0
  1  2  1  0  0  0  0
  2  3  1  0  0  0  0
  3  4  2  0  0  0  0
  4  5  2  0  0  0  0
  4  6  2  0  0  0  0
  6  7  1  0  0  0  0
  7  8  1  0  0  0  0
  4  9  1  0  0  0  0
  9 10  1  0  0  0  0
 10 11  1  0  0  0  0
 11 12  1  0  0  0  0
 12 13  2  0  0  0  0
 12 14  2  0  0  0  0
 14 15  1  0  0  0  0
 15 16  1  0  0  0  0
 12 17  2  0  0  0  0
 17 18  1  0  0  0  0
 18 19  1  0  0  0  0
  1 20  1  0  0  0  0
  1 21  1  0  0  0  0
  1 22  1  0  0  0  0
  2 23  1  0  0  0  0
  2 24  1  0  0  0  0
  7 25  1  0  0  0  0
  7 26  1  0  0  0  0
  8 27  1  0  0  0  0
  8 28  1  0  0  0  0
  8 29  1  0  0  0  0
 10 30  1  0  0  0  0
 10 31  1  0  0  0  0
 15 32  1  0  0  0  0
 15 33  1  0  0  0  0
 16 34  1  0  0  0  0
 16 35  1  0  0  0  0
 16 36  1  0  0  0  0
 18 37  1  0  0  0  0
 18 38  1  0  0  0  0
 19 39  1  0  0  0  0
 19 40  1  0  0  0  0
 19 41  1  0  0  0  0
M  END
