 xtb: 6.7.1 (edcfbbe)
          04092505213D

 41 40  0     0  0            999 V2000
    3.6001    1.7853   -1.8486 C   0  0  0  0  0  0  0  0  0  0  0  0
    2.3435    1.0013   -2.1593 C   0  0  0  0  0  0  0  0  0  0  0  0
    2.2606   -0.2177   -1.3942 O   0  0  0  0  0  0  0  0  0  0  0  0
    2.1603   -0.2499    0.1838 P   0  0  0  0  0  0  0  0  0  0  0  0
    1.0964    1.1781    1.0224 S   0  0  0  0  0  0  0  0  0  0  0  0
    3.6832   -0.2513    0.6307 O   0  0  0  0  0  0  0  0  0  0  0  0
    4.0932    0.0125    1.9833 C   0  0  0  0  0  0  0  0  0  0  0  0
    3.6481   -1.0792    2.9347 C   0  0  0  0  0  0  0  0  0  0  0  0
    1.6019   -2.2675    0.4256 S   0  0  0  0  0  0  0  0  0  0  0  0
   -0.1192   -2.1955   -0.1300 C   0  0  0  0  0  0  0  0  0  0  0  0
   -1.2336   -1.4066    1.0891 S   0  0  0  0  0  0  0  0  0  0  0  0
   -2.1288    0.0264   -0.1638 P   0  0  0  0  0  0  0  0  0  0  0  0
   -1.1881    0.5725   -1.8009 S   0  0  0  0  0  0  0  0  0  0  0  0
   -2.6029    1.2198    0.7661 O   0  0  0  0  0  0  0  0  0  0  0  0
   -1.9611    2.5001    0.8959 C   0  0  0  0  0  0  0  0  0  0  0  0
   -3.0378    3.5618    0.9923 C   0  0  0  0  0  0  0  0  0  0  0  0
   -3.4938   -0.7480   -0.3904 O   0  0  0  0  0  0  0  0  0  0  0  0
   -4.5451   -0.2181   -1.2296 C   0  0  0  0  0  0  0  0  0  0  0  0
   -4.5038   -0.8612   -2.6019 C   0  0  0  0  0  0  0  0  0  0  0  0
    4.4753    1.1517   -1.9666 H   0  0  0  0  0  0  0  0  0  0  0  0
    3.6694    2.6322   -2.5241 H   0  0  0  0  0  0  0  0  0  0  0  0
    3.5642    2.1519   -0.8233 H   0  0  0  0  0  0  0  0  0  0  0  0
    2.3210    0.6560   -3.1937 H   0  0  0  0  0  0  0  0  0  0  0  0
    1.4478    1.5979   -1.9590 H   0  0  0  0  0  0  0  0  0  0  0  0
    5.1802    0.0753    1.9195 H   0  0  0  0  0  0  0  0  0  0  0  0
    3.6795    0.9795    2.2878 H   0  0  0  0  0  0  0  0  0  0  0  0
    2.5613   -1.0810    3.0163 H   0  0  0  0  0  0  0  0  0  0  0  0
    3.9711   -2.0515    2.5716 H   0  0  0  0  0  0  0  0  0  0  0  0
    4.0742   -0.8981    3.9163 H   0  0  0  0  0  0  0  0  0  0  0  0
   -0.4328   -3.2279   -0.2566 H   0  0  0  0  0  0  0  0  0  0  0  0
   -0.1772   -1.6413   -1.0699 H   0  0  0  0  0  0  0  0  0  0  0  0
   -1.3395    2.4711    1.7938 H   0  0  0  0  0  0  0  0  0  0  0  0
   -1.3121    2.6632    0.0290 H   0  0  0  0  0  0  0  0  0  0  0  0
   -3.6177    3.5963    0.0736 H   0  0  0  0  0  0  0  0  0  0  0  0
   -3.7015    3.3392    1.8228 H   0  0  0  0  0  0  0  0  0  0  0  0
   -2.5676    4.5260    1.1544 H   0  0  0  0  0  0  0  0  0  0  0  0
   -5.4687   -0.4611   -0.7016 H   0  0  0  0  0  0  0  0  0  0  0  0
   -4.4395    0.8680   -1.2990 H   0  0  0  0  0  0  0  0  0  0  0  0
   -4.5672   -1.9415   -2.5074 H   0  0  0  0  0  0  0  0  0  0  0  0
   -5.3404   -0.5007   -3.1919 H   0  0  0  0  0  0  0  0  0  0  0  0
   -3.5755   -0.6068   -3.1093 H   0  0  0  0  0  0  0  0  0  0  0  0
  1  2  1  0  0  0  0
  2  3  1  0  0  0  0
  3  4  2  0  0  0  0
  4  5  2  0  0  0  0
  4  6  2  0  0  0  0
  6  7  1  0  0  0  0
  7  8  1  0  0  0  0
  4  9  1  0  0  0  0
  9 10  1  0  0  0  0
 10 11  1  0  0  0  0
 11 12  1  0  0  0  0
 12 13  2  0  0  0  0
 12 14  2  0  0  0  0
 14 15  1  0  0  0  0
 15 16  1  0  0  0  0
 12 17  2  0  0  0  0
 17 18  1  0  0  0  0
 18 19  1  0  0  0  0
  1 20  1  0  0  0  0
  1 21  1  0  0  0  0
  1 22  1  0  0  0  0
  2 23  1  0  0  0  0
  2 24  1  0  0  0  0
  7 25  1  0  0  0  0
  7 26  1  0  0  0  0
  8 27  1  0  0  0  0
  8 28  1  0  0  0  0
  8 29  1  0  0  0  0
 10 30  1  0  0  0  0
 10 31  1  0  0  0  0
 15 32  1  0  0  0  0
 15 33  1  0  0  0  0
 16 34  1  0  0  0  0
 16 35  1  0  0  0  0
 16 36  1  0  0  0  0
 18 37  1  0  0  0  0
 18 38  1  0  0  0  0
 19 39  1  0  0  0  0
 19 40  1  0  0  0  0
 19 41  1  0  0  0  0
M  END
