 xtb: 6.7.1 (edcfbbe)
          04092507313D

 38 37  0     0  0            999 V2000
    1.3837   -4.0617    0.7517 C   0  0  0  0  0  0  0  0  0  0  0  0
    1.4815   -3.3662   -0.5931 C   0  0  0  0  0  0  0  0  0  0  0  0
    1.4480   -1.9433   -0.3741 O   0  0  0  0  0  0  0  0  0  0  0  0
    2.1590   -1.1547   -1.1564 C   0  0  0  0  0  0  0  0  0  0  0  0
    2.8607   -1.5324   -2.0666 O   0  0  0  0  0  0  0  0  0  0  0  0
    1.9645    0.2968   -0.7652 C   0  0  0  0  0  0  0  0  0  0  0  0
    0.6977    0.8739   -1.4169 C   0  0  0  0  0  0  0  0  0  0  0  0
    0.8929    1.1319   -2.4601 H   0  0  0  0  0  0  0  0  0  0  0  0
    0.2470    2.1020   -0.6434 C   0  0  0  0  0  0  0  0  0  0  0  0
   -0.8135    2.1407   -0.0541 O   0  0  0  0  0  0  0  0  0  0  0  0
    1.1296    3.0593   -0.6860 O   0  0  0  0  0  0  0  0  0  0  0  0
    0.8956    4.2398    0.1155 C   0  0  0  0  0  0  0  0  0  0  0  0
    1.4088    4.0281    1.5302 C   0  0  0  0  0  0  0  0  0  0  0  0
   -0.7137   -0.2675   -1.4836 S   0  0  0  0  0  0  0  0  0  0  0  0
   -1.2316   -0.4054    0.5927 P   0  0  0  0  0  0  0  0  0  0  0  0
   -0.0677    0.1528    2.0642 S   0  0  0  0  0  0  0  0  0  0  0  0
   -2.7578    0.0661    0.6827 O   0  0  0  0  0  0  0  0  0  0  0  0
   -3.2403    1.3453    1.0895 C   0  0  0  0  0  0  0  0  0  0  0  0
   -1.4525   -1.9749    0.7297 O   0  0  0  0  0  0  0  0  0  0  0  0
   -2.3525   -2.7143   -0.1096 C   0  0  0  0  0  0  0  0  0  0  0  0
    0.5028   -3.7087    1.2816 H   0  0  0  0  0  0  0  0  0  0  0  0
    1.3123   -5.1333    0.5995 H   0  0  0  0  0  0  0  0  0  0  0  0
    2.2593   -3.8419    1.3562 H   0  0  0  0  0  0  0  0  0  0  0  0
    0.6298   -3.6146   -1.2330 H   0  0  0  0  0  0  0  0  0  0  0  0
    2.4090   -3.6110   -1.1193 H   0  0  0  0  0  0  0  0  0  0  0  0
    2.8238    0.8801   -1.0940 H   0  0  0  0  0  0  0  0  0  0  0  0
    1.8724    0.3402    0.3223 H   0  0  0  0  0  0  0  0  0  0  0  0
    1.4458    5.0276   -0.3980 H   0  0  0  0  0  0  0  0  0  0  0  0
   -0.1759    4.4547    0.1166 H   0  0  0  0  0  0  0  0  0  0  0  0
    0.8939    3.1907    1.9988 H   0  0  0  0  0  0  0  0  0  0  0  0
    2.4741    3.8165    1.5174 H   0  0  0  0  0  0  0  0  0  0  0  0
    1.2287    4.9236    2.1154 H   0  0  0  0  0  0  0  0  0  0  0  0
   -4.2324    1.1666    1.4984 H   0  0  0  0  0  0  0  0  0  0  0  0
   -3.2872    2.0117    0.2305 H   0  0  0  0  0  0  0  0  0  0  0  0
   -2.5844    1.7729    1.8480 H   0  0  0  0  0  0  0  0  0  0  0  0
   -2.1291   -2.5236   -1.1600 H   0  0  0  0  0  0  0  0  0  0  0  0
   -3.3805   -2.4290    0.1067 H   0  0  0  0  0  0  0  0  0  0  0  0
   -2.1832   -3.7599    0.1357 H   0  0  0  0  0  0  0  0  0  0  0  0
  1  2  1  0  0  0  0
  2  3  1  0  0  0  0
  3  4  1  0  0  0  0
  4  5  2  0  0  0  0
  4  6  1  0  0  0  0
  6  7  1  0  0  0  0
  7  8  1  0  0  0  0
  7  9  1  0  0  0  0
  9 10  2  0  0  0  0
  9 11  4  0  0  0  0
 11 12  1  0  0  0  0
 12 13  1  0  0  0  0
  7 14  1  0  0  0  0
 14 15  1  0  0  0  0
 15 16  2  0  0  0  0
 15 17  1  0  0  0  0
 17 18  1  0  0  0  0
 15 19  1  0  0  0  0
 19 20  1  0  0  0  0
  1 21  1  0  0  0  0
  1 22  1  0  0  0  0
  1 23  1  0  0  0  0
  2 24  1  0  0  0  0
  2 25  1  0  0  0  0
  6 26  1  0  0  0  0
  6 27  1  0  0  0  0
 12 28  1  0  0  0  0
 12 29  1  0  0  0  0
 13 30  1  0  0  0  0
 13 31  1  0  0  0  0
 13 32  1  0  0  0  0
 18 33  1  0  0  0  0
 18 34  1  0  0  0  0
 18 35  1  0  0  0  0
 20 36  1  0  0  0  0
 20 37  1  0  0  0  0
 20 38  1  0  0  0  0
M  END
