 xtb: 6.7.1 (edcfbbe)
          04092505203D

 41 40  0     0  0            999 V2000
    5.7014   -0.2572    0.4470 C   0  0  0  0  0  0  0  0  0  0  0  0
    4.3963   -0.6420   -0.2199 C   0  0  0  0  0  0  0  0  0  0  0  0
    3.3421    0.1247    0.3945 O   0  0  0  0  0  0  0  0  0  0  0  0
    1.9030    0.2402   -0.2718 P   0  0  0  0  0  0  0  0  0  0  0  0
    1.9304    0.7132   -2.1790 S   0  0  0  0  0  0  0  0  0  0  0  0
    1.1867    1.2274    0.7326 O   0  0  0  0  0  0  0  0  0  0  0  0
    1.2037    2.6562    0.5513 C   0  0  0  0  0  0  0  0  0  0  0  0
    2.5915    3.2308    0.7335 C   0  0  0  0  0  0  0  0  0  0  0  0
    1.0655   -1.6246    0.2174 S   0  0  0  0  0  0  0  0  0  0  0  0
   -0.1369   -1.8373   -1.1383 C   0  0  0  0  0  0  0  0  0  0  0  0
   -1.8371   -1.9862   -0.5494 S   0  0  0  0  0  0  0  0  0  0  0  0
   -2.0988    0.0239    0.0899 P   0  0  0  0  0  0  0  0  0  0  0  0
   -1.5198    1.3869   -1.1891 S   0  0  0  0  0  0  0  0  0  0  0  0
   -1.3791    0.1452    1.4843 O   0  0  0  0  0  0  0  0  0  0  0  0
   -1.7101   -0.7085    2.6141 C   0  0  0  0  0  0  0  0  0  0  0  0
   -0.5271   -0.7086    3.5588 C   0  0  0  0  0  0  0  0  0  0  0  0
   -3.6281    0.0973    0.5137 O   0  0  0  0  0  0  0  0  0  0  0  0
   -4.7022    0.2784   -0.4282 C   0  0  0  0  0  0  0  0  0  0  0  0
   -5.1926   -1.0458   -0.9789 C   0  0  0  0  0  0  0  0  0  0  0  0
    5.9063    0.7981    0.2906 H   0  0  0  0  0  0  0  0  0  0  0  0
    5.6414   -0.4502    1.5140 H   0  0  0  0  0  0  0  0  0  0  0  0
    6.5061   -0.8455    0.0184 H   0  0  0  0  0  0  0  0  0  0  0  0
    4.1742   -1.7035   -0.0789 H   0  0  0  0  0  0  0  0  0  0  0  0
    4.4081   -0.4190   -1.2922 H   0  0  0  0  0  0  0  0  0  0  0  0
    0.8106    2.8848   -0.4454 H   0  0  0  0  0  0  0  0  0  0  0  0
    0.5037    3.0204    1.3050 H   0  0  0  0  0  0  0  0  0  0  0  0
    3.2442    2.8744   -0.0626 H   0  0  0  0  0  0  0  0  0  0  0  0
    2.5391    4.3142    0.6889 H   0  0  0  0  0  0  0  0  0  0  0  0
    3.0015    2.9227    1.6917 H   0  0  0  0  0  0  0  0  0  0  0  0
    0.0904   -2.7719   -1.6445 H   0  0  0  0  0  0  0  0  0  0  0  0
   -0.0482   -0.9874   -1.8210 H   0  0  0  0  0  0  0  0  0  0  0  0
   -2.6051   -0.2961    3.0829 H   0  0  0  0  0  0  0  0  0  0  0  0
   -1.9252   -1.7143    2.2413 H   0  0  0  0  0  0  0  0  0  0  0  0
   -0.3032    0.3057    3.8767 H   0  0  0  0  0  0  0  0  0  0  0  0
   -0.7667   -1.3152    4.4261 H   0  0  0  0  0  0  0  0  0  0  0  0
    0.3492   -1.1197    3.0638 H   0  0  0  0  0  0  0  0  0  0  0  0
   -5.4802    0.7797    0.1502 H   0  0  0  0  0  0  0  0  0  0  0  0
   -4.3578    0.9408   -1.2291 H   0  0  0  0  0  0  0  0  0  0  0  0
   -4.4243   -1.5171   -1.5873 H   0  0  0  0  0  0  0  0  0  0  0  0
   -5.4522   -1.7153   -0.1637 H   0  0  0  0  0  0  0  0  0  0  0  0
   -6.0704   -0.8693   -1.5922 H   0  0  0  0  0  0  0  0  0  0  0  0
  1  2  1  0  0  0  0
  2  3  1  0  0  0  0
  3  4  2  0  0  0  0
  4  5  2  0  0  0  0
  4  6  2  0  0  0  0
  6  7  1  0  0  0  0
  7  8  1  0  0  0  0
  4  9  1  0  0  0  0
  9 10  1  0  0  0  0
 10 11  1  0  0  0  0
 11 12  1  0  0  0  0
 12 13  2  0  0  0  0
 12 14  2  0  0  0  0
 14 15  1  0  0  0  0
 15 16  1  0  0  0  0
 12 17  2  0  0  0  0
 17 18  1  0  0  0  0
 18 19  1  0  0  0  0
  1 20  1  0  0  0  0
  1 21  1  0  0  0  0
  1 22  1  0  0  0  0
  2 23  1  0  0  0  0
  2 24  1  0  0  0  0
  7 25  1  0  0  0  0
  7 26  1  0  0  0  0
  8 27  1  0  0  0  0
  8 28  1  0  0  0  0
  8 29  1  0  0  0  0
 10 30  1  0  0  0  0
 10 31  1  0  0  0  0
 15 32  1  0  0  0  0
 15 33  1  0  0  0  0
 16 34  1  0  0  0  0
 16 35  1  0  0  0  0
 16 36  1  0  0  0  0
 18 37  1  0  0  0  0
 18 38  1  0  0  0  0
 19 39  1  0  0  0  0
 19 40  1  0  0  0  0
 19 41  1  0  0  0  0
M  END
