 xtb: 6.7.1 (edcfbbe)
          04092505213D

 41 40  0     0  0            999 V2000
    3.1300   -2.8779   -1.2836 C   0  0  0  0  0  0  0  0  0  0  0  0
    4.1644   -2.0313   -0.5730 C   0  0  0  0  0  0  0  0  0  0  0  0
    3.8871   -0.6131   -0.6764 O   0  0  0  0  0  0  0  0  0  0  0  0
    2.6352    0.1336   -0.0849 P   0  0  0  0  0  0  0  0  0  0  0  0
    2.9995    2.0561    0.0020 S   0  0  0  0  0  0  0  0  0  0  0  0
    2.4224   -0.6631    1.2780 O   0  0  0  0  0  0  0  0  0  0  0  0
    1.2937   -0.5414    2.1596 C   0  0  0  0  0  0  0  0  0  0  0  0
    1.3000    0.7634    2.9304 C   0  0  0  0  0  0  0  0  0  0  0  0
    0.9606   -0.3966   -1.3161 S   0  0  0  0  0  0  0  0  0  0  0  0
    0.1565    1.2164   -1.4017 C   0  0  0  0  0  0  0  0  0  0  0  0
   -0.8329    1.6099    0.0637 S   0  0  0  0  0  0  0  0  0  0  0  0
   -2.3706    0.2085   -0.3168 P   0  0  0  0  0  0  0  0  0  0  0  0
   -2.9709    0.0489   -2.1689 S   0  0  0  0  0  0  0  0  0  0  0  0
   -3.5563    0.6129    0.6507 O   0  0  0  0  0  0  0  0  0  0  0  0
   -3.4353    0.6549    2.0952 C   0  0  0  0  0  0  0  0  0  0  0  0
   -3.1568    2.0641    2.5773 C   0  0  0  0  0  0  0  0  0  0  0  0
   -1.6987   -1.1046    0.3116 O   0  0  0  0  0  0  0  0  0  0  0  0
   -2.0068   -2.4233   -0.1784 C   0  0  0  0  0  0  0  0  0  0  0  0
   -3.3975   -2.8550    0.2398 C   0  0  0  0  0  0  0  0  0  0  0  0
    2.1599   -2.7788   -0.7995 H   0  0  0  0  0  0  0  0  0  0  0  0
    3.0322   -2.5677   -2.3209 H   0  0  0  0  0  0  0  0  0  0  0  0
    3.4377   -3.9184   -1.2490 H   0  0  0  0  0  0  0  0  0  0  0  0
    5.1472   -2.1251   -1.0373 H   0  0  0  0  0  0  0  0  0  0  0  0
    4.2263   -2.2905    0.4852 H   0  0  0  0  0  0  0  0  0  0  0  0
    0.3746   -0.6463    1.5753 H   0  0  0  0  0  0  0  0  0  0  0  0
    1.3998   -1.3964    2.8305 H   0  0  0  0  0  0  0  0  0  0  0  0
    2.2472    0.8874    3.4490 H   0  0  0  0  0  0  0  0  0  0  0  0
    1.1616    1.6065    2.2564 H   0  0  0  0  0  0  0  0  0  0  0  0
    0.4918    0.7558    3.6546 H   0  0  0  0  0  0  0  0  0  0  0  0
   -0.4941    1.1996   -2.2761 H   0  0  0  0  0  0  0  0  0  0  0  0
    0.9169    1.9948   -1.4783 H   0  0  0  0  0  0  0  0  0  0  0  0
   -4.4034    0.3006    2.4535 H   0  0  0  0  0  0  0  0  0  0  0  0
   -2.6470   -0.0343    2.4063 H   0  0  0  0  0  0  0  0  0  0  0  0
   -3.1673    2.0761    3.6626 H   0  0  0  0  0  0  0  0  0  0  0  0
   -2.1853    2.4060    2.2262 H   0  0  0  0  0  0  0  0  0  0  0  0
   -3.9195    2.7423    2.2047 H   0  0  0  0  0  0  0  0  0  0  0  0
   -1.9120   -2.4201   -1.2684 H   0  0  0  0  0  0  0  0  0  0  0  0
   -1.2343   -3.0581    0.2573 H   0  0  0  0  0  0  0  0  0  0  0  0
   -3.5861   -3.8611   -0.1210 H   0  0  0  0  0  0  0  0  0  0  0  0
   -3.4937   -2.8362    1.3223 H   0  0  0  0  0  0  0  0  0  0  0  0
   -4.1357   -2.1807   -0.1940 H   0  0  0  0  0  0  0  0  0  0  0  0
  1  2  1  0  0  0  0
  2  3  1  0  0  0  0
  3  4  2  0  0  0  0
  4  5  2  0  0  0  0
  4  6  2  0  0  0  0
  6  7  1  0  0  0  0
  7  8  1  0  0  0  0
  4  9  1  0  0  0  0
  9 10  1  0  0  0  0
 10 11  1  0  0  0  0
 11 12  1  0  0  0  0
 12 13  2  0  0  0  0
 12 14  2  0  0  0  0
 14 15  1  0  0  0  0
 15 16  1  0  0  0  0
 12 17  1  0  0  0  0
 17 18  1  0  0  0  0
 18 19  1  0  0  0  0
  1 20  1  0  0  0  0
  1 21  1  0  0  0  0
  1 22  1  0  0  0  0
  2 23  1  0  0  0  0
  2 24  1  0  0  0  0
  7 25  1  0  0  0  0
  7 26  1  0  0  0  0
  8 27  1  0  0  0  0
  8 28  1  0  0  0  0
  8 29  1  0  0  0  0
 10 30  1  0  0  0  0
 10 31  1  0  0  0  0
 15 32  1  0  0  0  0
 15 33  1  0  0  0  0
 16 34  1  0  0  0  0
 16 35  1  0  0  0  0
 16 36  1  0  0  0  0
 18 37  1  0  0  0  0
 18 38  1  0  0  0  0
 19 39  1  0  0  0  0
 19 40  1  0  0  0  0
 19 41  1  0  0  0  0
M  END
