 xtb: 6.7.1 (edcfbbe)
          04092505203D

 41 40  0     0  0            999 V2000
    3.3125    1.9359    0.3499 C   0  0  0  0  0  0  0  0  0  0  0  0
    2.4622    1.5423    1.5392 C   0  0  0  0  0  0  0  0  0  0  0  0
    1.4194    0.5944    1.1991 O   0  0  0  0  0  0  0  0  0  0  0  0
    1.6256   -0.8767    0.6719 P   0  0  0  0  0  0  0  0  0  0  0  0
    0.0625   -2.0065    1.0215 S   0  0  0  0  0  0  0  0  0  0  0  0
    2.9623   -1.3136    1.4094 O   0  0  0  0  0  0  0  0  0  0  0  0
    3.3564   -2.6890    1.5638 C   0  0  0  0  0  0  0  0  0  0  0  0
    3.6949   -3.3454    0.2415 C   0  0  0  0  0  0  0  0  0  0  0  0
    2.1830   -0.7539   -1.3803 S   0  0  0  0  0  0  0  0  0  0  0  0
    0.5598   -0.3827   -2.0682 C   0  0  0  0  0  0  0  0  0  0  0  0
   -0.0706    1.2616   -1.5750 S   0  0  0  0  0  0  0  0  0  0  0  0
   -1.8154    0.7090   -0.5590 P   0  0  0  0  0  0  0  0  0  0  0  0
   -2.6645   -0.9791   -1.1016 S   0  0  0  0  0  0  0  0  0  0  0  0
   -2.7613    1.9755   -0.7556 O   0  0  0  0  0  0  0  0  0  0  0  0
   -3.5091    2.1873   -1.9698 C   0  0  0  0  0  0  0  0  0  0  0  0
   -4.6661    3.1138   -1.6545 C   0  0  0  0  0  0  0  0  0  0  0  0
   -1.4165    0.8902    0.9590 O   0  0  0  0  0  0  0  0  0  0  0  0
   -2.3147    0.4807    2.0155 C   0  0  0  0  0  0  0  0  0  0  0  0
   -1.5878    0.6578    3.3308 C   0  0  0  0  0  0  0  0  0  0  0  0
    2.6837    2.2796   -0.4688 H   0  0  0  0  0  0  0  0  0  0  0  0
    3.9790    2.7393    0.6480 H   0  0  0  0  0  0  0  0  0  0  0  0
    3.9067    1.0910    0.0089 H   0  0  0  0  0  0  0  0  0  0  0  0
    1.8989    2.3931    1.9263 H   0  0  0  0  0  0  0  0  0  0  0  0
    3.0725    1.1050    2.3314 H   0  0  0  0  0  0  0  0  0  0  0  0
    4.2256   -2.6347    2.2209 H   0  0  0  0  0  0  0  0  0  0  0  0
    2.5441   -3.2262    2.0629 H   0  0  0  0  0  0  0  0  0  0  0  0
    2.7946   -3.4607   -0.3598 H   0  0  0  0  0  0  0  0  0  0  0  0
    4.4101   -2.7416   -0.3110 H   0  0  0  0  0  0  0  0  0  0  0  0
    4.1187   -4.3268    0.4288 H   0  0  0  0  0  0  0  0  0  0  0  0
   -0.1673   -1.1378   -1.7558 H   0  0  0  0  0  0  0  0  0  0  0  0
    0.6828   -0.3822   -3.1481 H   0  0  0  0  0  0  0  0  0  0  0  0
   -2.8344    2.6281   -2.7081 H   0  0  0  0  0  0  0  0  0  0  0  0
   -3.8590    1.2160   -2.3361 H   0  0  0  0  0  0  0  0  0  0  0  0
   -5.3305    2.6518   -0.9296 H   0  0  0  0  0  0  0  0  0  0  0  0
   -4.2913    4.0474   -1.2451 H   0  0  0  0  0  0  0  0  0  0  0  0
   -5.2175    3.3153   -2.5669 H   0  0  0  0  0  0  0  0  0  0  0  0
   -3.2135    1.1002    1.9612 H   0  0  0  0  0  0  0  0  0  0  0  0
   -2.5870   -0.5671    1.8464 H   0  0  0  0  0  0  0  0  0  0  0  0
   -2.2419    0.3560    4.1423 H   0  0  0  0  0  0  0  0  0  0  0  0
   -0.6945    0.0379    3.3402 H   0  0  0  0  0  0  0  0  0  0  0  0
   -1.2991    1.6967    3.4593 H   0  0  0  0  0  0  0  0  0  0  0  0
  1  2  1  0  0  0  0
  2  3  1  0  0  0  0
  3  4  2  0  0  0  0
  4  5  2  0  0  0  0
  4  6  2  0  0  0  0
  6  7  1  0  0  0  0
  7  8  1  0  0  0  0
  4  9  1  0  0  0  0
  9 10  1  0  0  0  0
 10 11  1  0  0  0  0
 11 12  1  0  0  0  0
 12 13  2  0  0  0  0
 12 14  2  0  0  0  0
 14 15  1  0  0  0  0
 15 16  1  0  0  0  0
 12 17  2  0  0  0  0
 17 18  1  0  0  0  0
 18 19  1  0  0  0  0
  1 20  1  0  0  0  0
  1 21  1  0  0  0  0
  1 22  1  0  0  0  0
  2 23  1  0  0  0  0
  2 24  1  0  0  0  0
  7 25  1  0  0  0  0
  7 26  1  0  0  0  0
  8 27  1  0  0  0  0
  8 28  1  0  0  0  0
  8 29  1  0  0  0  0
 10 30  1  0  0  0  0
 10 31  1  0  0  0  0
 15 32  1  0  0  0  0
 15 33  1  0  0  0  0
 16 34  1  0  0  0  0
 16 35  1  0  0  0  0
 16 36  1  0  0  0  0
 18 37  1  0  0  0  0
 18 38  1  0  0  0  0
 19 39  1  0  0  0  0
 19 40  1  0  0  0  0
 19 41  1  0  0  0  0
M  END
