 xtb: 6.7.1 (edcfbbe)
          04092505203D

 41 40  0     0  0            999 V2000
    4.2205   -0.3535   -2.3816 C   0  0  0  0  0  0  0  0  0  0  0  0
    4.4383    0.4301   -1.1033 C   0  0  0  0  0  0  0  0  0  0  0  0
    3.7438   -0.1493    0.0136 O   0  0  0  0  0  0  0  0  0  0  0  0
    2.1580   -0.1806    0.1185 P   0  0  0  0  0  0  0  0  0  0  0  0
    1.2708    1.4758   -0.4754 S   0  0  0  0  0  0  0  0  0  0  0  0
    1.9344   -0.5666    1.6374 O   0  0  0  0  0  0  0  0  0  0  0  0
    1.8794    0.4152    2.6908 C   0  0  0  0  0  0  0  0  0  0  0  0
    3.2581    0.9240    3.0576 C   0  0  0  0  0  0  0  0  0  0  0  0
    1.6260   -2.0096   -0.7701 S   0  0  0  0  0  0  0  0  0  0  0  0
   -0.1290   -1.6899   -1.0860 C   0  0  0  0  0  0  0  0  0  0  0  0
   -1.0612   -1.2730    0.4193 S   0  0  0  0  0  0  0  0  0  0  0  0
   -2.1529    0.4288   -0.2914 P   0  0  0  0  0  0  0  0  0  0  0  0
   -1.9199    0.9262   -2.1660 S   0  0  0  0  0  0  0  0  0  0  0  0
   -1.8097    1.5933    0.7118 O   0  0  0  0  0  0  0  0  0  0  0  0
   -1.8217    1.4818    2.1547 C   0  0  0  0  0  0  0  0  0  0  0  0
   -3.1967    1.7509    2.7303 C   0  0  0  0  0  0  0  0  0  0  0  0
   -3.6608    0.0936    0.1073 O   0  0  0  0  0  0  0  0  0  0  0  0
   -4.5552   -0.6166   -0.7653 C   0  0  0  0  0  0  0  0  0  0  0  0
   -4.1114   -2.0436   -1.0154 C   0  0  0  0  0  0  0  0  0  0  0  0
    4.4500   -1.4044   -2.2242 H   0  0  0  0  0  0  0  0  0  0  0  0
    3.1824   -0.2650   -2.7005 H   0  0  0  0  0  0  0  0  0  0  0  0
    4.8614    0.0447   -3.1617 H   0  0  0  0  0  0  0  0  0  0  0  0
    4.0972    1.4636   -1.2240 H   0  0  0  0  0  0  0  0  0  0  0  0
    5.4848    0.4167   -0.7958 H   0  0  0  0  0  0  0  0  0  0  0  0
    1.2375    1.2397    2.3619 H   0  0  0  0  0  0  0  0  0  0  0  0
    1.4098   -0.1151    3.5205 H   0  0  0  0  0  0  0  0  0  0  0  0
    3.9163    0.0887    3.2795 H   0  0  0  0  0  0  0  0  0  0  0  0
    3.6789    1.4927    2.2304 H   0  0  0  0  0  0  0  0  0  0  0  0
    3.1825    1.5678    3.9284 H   0  0  0  0  0  0  0  0  0  0  0  0
   -0.5204   -2.6176   -1.4967 H   0  0  0  0  0  0  0  0  0  0  0  0
   -0.2411   -0.8656   -1.7968 H   0  0  0  0  0  0  0  0  0  0  0  0
   -1.4638    0.4858    2.4333 H   0  0  0  0  0  0  0  0  0  0  0  0
   -1.1034    2.2382    2.4786 H   0  0  0  0  0  0  0  0  0  0  0  0
   -3.1260    1.7635    3.8136 H   0  0  0  0  0  0  0  0  0  0  0  0
   -3.5623    2.7133    2.3828 H   0  0  0  0  0  0  0  0  0  0  0  0
   -3.8954    0.9777    2.4244 H   0  0  0  0  0  0  0  0  0  0  0  0
   -5.5122   -0.5778   -0.2432 H   0  0  0  0  0  0  0  0  0  0  0  0
   -4.6231   -0.0660   -1.7085 H   0  0  0  0  0  0  0  0  0  0  0  0
   -3.9215   -2.5534   -0.0743 H   0  0  0  0  0  0  0  0  0  0  0  0
   -4.8891   -2.5688   -1.5605 H   0  0  0  0  0  0  0  0  0  0  0  0
   -3.2011   -2.0463   -1.6134 H   0  0  0  0  0  0  0  0  0  0  0  0
  1  2  1  0  0  0  0
  2  3  1  0  0  0  0
  3  4  2  0  0  0  0
  4  5  2  0  0  0  0
  4  6  2  0  0  0  0
  6  7  1  0  0  0  0
  7  8  1  0  0  0  0
  4  9  1  0  0  0  0
  9 10  1  0  0  0  0
 10 11  1  0  0  0  0
 11 12  1  0  0  0  0
 12 13  2  0  0  0  0
 12 14  2  0  0  0  0
 14 15  1  0  0  0  0
 15 16  1  0  0  0  0
 12 17  2  0  0  0  0
 17 18  1  0  0  0  0
 18 19  1  0  0  0  0
  1 20  1  0  0  0  0
  1 21  1  0  0  0  0
  1 22  1  0  0  0  0
  2 23  1  0  0  0  0
  2 24  1  0  0  0  0
  7 25  1  0  0  0  0
  7 26  1  0  0  0  0
  8 27  1  0  0  0  0
  8 28  1  0  0  0  0
  8 29  1  0  0  0  0
 10 30  1  0  0  0  0
 10 31  1  0  0  0  0
 15 32  1  0  0  0  0
 15 33  1  0  0  0  0
 16 34  1  0  0  0  0
 16 35  1  0  0  0  0
 16 36  1  0  0  0  0
 18 37  1  0  0  0  0
 18 38  1  0  0  0  0
 19 39  1  0  0  0  0
 19 40  1  0  0  0  0
 19 41  1  0  0  0  0
M  END
