 xtb: 6.7.1 (edcfbbe)
          04092505203D

 41 40  0     0  0            999 V2000
    2.7467    0.4348   -3.3510 C   0  0  0  0  0  0  0  0  0  0  0  0
    2.8184    0.8273   -1.8910 C   0  0  0  0  0  0  0  0  0  0  0  0
    2.3719   -0.3018   -1.1105 O   0  0  0  0  0  0  0  0  0  0  0  0
    2.0774   -0.1824    0.4396 P   0  0  0  0  0  0  0  0  0  0  0  0
    1.0635    1.4011    1.0209 S   0  0  0  0  0  0  0  0  0  0  0  0
    3.5449   -0.2272    1.0529 O   0  0  0  0  0  0  0  0  0  0  0  0
    3.8230    0.1505    2.4124 C   0  0  0  0  0  0  0  0  0  0  0  0
    3.2153   -0.8219    3.4022 C   0  0  0  0  0  0  0  0  0  0  0  0
    1.3330   -2.1114    0.7863 S   0  0  0  0  0  0  0  0  0  0  0  0
   -0.2600   -2.0113   -0.0796 C   0  0  0  0  0  0  0  0  0  0  0  0
   -1.5194   -1.0574    0.8162 S   0  0  0  0  0  0  0  0  0  0  0  0
   -1.9252    0.4932   -0.5982 P   0  0  0  0  0  0  0  0  0  0  0  0
   -0.7742    0.4983   -2.1816 S   0  0  0  0  0  0  0  0  0  0  0  0
   -1.8950    1.9080    0.0833 O   0  0  0  0  0  0  0  0  0  0  0  0
   -2.8155    2.4028    1.0846 C   0  0  0  0  0  0  0  0  0  0  0  0
   -2.7044    1.6481    2.3922 C   0  0  0  0  0  0  0  0  0  0  0  0
   -3.4931    0.3373   -0.8551 O   0  0  0  0  0  0  0  0  0  0  0  0
   -4.1745   -0.8877   -1.1730 C   0  0  0  0  0  0  0  0  0  0  0  0
   -3.7294   -1.4800   -2.4945 C   0  0  0  0  0  0  0  0  0  0  0  0
    3.3421   -0.4567   -3.5236 H   0  0  0  0  0  0  0  0  0  0  0  0
    1.7138    0.2331   -3.6257 H   0  0  0  0  0  0  0  0  0  0  0  0
    3.1255    1.2504   -3.9579 H   0  0  0  0  0  0  0  0  0  0  0  0
    2.1650    1.6798   -1.6747 H   0  0  0  0  0  0  0  0  0  0  0  0
    3.8392    1.0696   -1.5845 H   0  0  0  0  0  0  0  0  0  0  0  0
    4.9124    0.1571    2.4648 H   0  0  0  0  0  0  0  0  0  0  0  0
    3.4338    1.1609    2.5755 H   0  0  0  0  0  0  0  0  0  0  0  0
    3.5253   -1.8381    3.1723 H   0  0  0  0  0  0  0  0  0  0  0  0
    3.5357   -0.5624    4.4060 H   0  0  0  0  0  0  0  0  0  0  0  0
    2.1280   -0.7680    3.3524 H   0  0  0  0  0  0  0  0  0  0  0  0
   -0.6094   -3.0375   -0.1557 H   0  0  0  0  0  0  0  0  0  0  0  0
   -0.1118   -1.5586   -1.0649 H   0  0  0  0  0  0  0  0  0  0  0  0
   -2.5124    3.4447    1.1997 H   0  0  0  0  0  0  0  0  0  0  0  0
   -3.8268    2.3484    0.6765 H   0  0  0  0  0  0  0  0  0  0  0  0
   -3.0649    0.6268    2.2788 H   0  0  0  0  0  0  0  0  0  0  0  0
   -1.6657    1.6201    2.7150 H   0  0  0  0  0  0  0  0  0  0  0  0
   -3.3001    2.1528    3.1462 H   0  0  0  0  0  0  0  0  0  0  0  0
   -4.0120   -1.5952   -0.3547 H   0  0  0  0  0  0  0  0  0  0  0  0
   -5.2253   -0.5939   -1.2046 H   0  0  0  0  0  0  0  0  0  0  0  0
   -3.8353   -0.7483   -3.2917 H   0  0  0  0  0  0  0  0  0  0  0  0
   -2.6838   -1.7790   -2.4440 H   0  0  0  0  0  0  0  0  0  0  0  0
   -4.3373   -2.3500   -2.7211 H   0  0  0  0  0  0  0  0  0  0  0  0
  1  2  1  0  0  0  0
  2  3  1  0  0  0  0
  3  4  2  0  0  0  0
  4  5  2  0  0  0  0
  4  6  2  0  0  0  0
  6  7  1  0  0  0  0
  7  8  1  0  0  0  0
  4  9  1  0  0  0  0
  9 10  1  0  0  0  0
 10 11  1  0  0  0  0
 11 12  1  0  0  0  0
 12 13  2  0  0  0  0
 12 14  2  0  0  0  0
 14 15  1  0  0  0  0
 15 16  1  0  0  0  0
 12 17  2  0  0  0  0
 17 18  1  0  0  0  0
 18 19  1  0  0  0  0
  1 20  1  0  0  0  0
  1 21  1  0  0  0  0
  1 22  1  0  0  0  0
  2 23  1  0  0  0  0
  2 24  1  0  0  0  0
  7 25  1  0  0  0  0
  7 26  1  0  0  0  0
  8 27  1  0  0  0  0
  8 28  1  0  0  0  0
  8 29  1  0  0  0  0
 10 30  1  0  0  0  0
 10 31  1  0  0  0  0
 15 32  1  0  0  0  0
 15 33  1  0  0  0  0
 16 34  1  0  0  0  0
 16 35  1  0  0  0  0
 16 36  1  0  0  0  0
 18 37  1  0  0  0  0
 18 38  1  0  0  0  0
 19 39  1  0  0  0  0
 19 40  1  0  0  0  0
 19 41  1  0  0  0  0
M  END
