 xtb: 6.7.1 (edcfbbe)
          04092507313D

 38 37  0     0  0            999 V2000
    1.3681   -3.7990   -2.0365 C   0  0  0  0  0  0  0  0  0  0  0  0
    2.0649   -3.6781   -0.6903 C   0  0  0  0  0  0  0  0  0  0  0  0
    1.7832   -2.4046   -0.0762 O   0  0  0  0  0  0  0  0  0  0  0  0
    2.5113   -1.3658   -0.4364 C   0  0  0  0  0  0  0  0  0  0  0  0
    3.4411   -1.4078   -1.2083 O   0  0  0  0  0  0  0  0  0  0  0  0
    2.0157   -0.0906    0.2206 C   0  0  0  0  0  0  0  0  0  0  0  0
    1.0931    0.6395   -0.7619 C   0  0  0  0  0  0  0  0  0  0  0  0
    1.6407    0.8592   -1.6828 H   0  0  0  0  0  0  0  0  0  0  0  0
    0.5739    1.9384   -0.1691 C   0  0  0  0  0  0  0  0  0  0  0  0
   -0.6077    2.1496    0.0108 O   0  0  0  0  0  0  0  0  0  0  0  0
    1.5440    2.7572    0.1258 O   0  0  0  0  0  0  0  0  0  0  0  0
    1.2087    4.0331    0.7176 C   0  0  0  0  0  0  0  0  0  0  0  0
    0.8352    5.0465   -0.3509 C   0  0  0  0  0  0  0  0  0  0  0  0
   -0.3335   -0.3724   -1.2832 S   0  0  0  0  0  0  0  0  0  0  0  0
   -1.6123   -0.2020    0.3765 P   0  0  0  0  0  0  0  0  0  0  0  0
   -0.9771    0.1808    2.2040 S   0  0  0  0  0  0  0  0  0  0  0  0
   -2.8306    0.6367   -0.2000 O   0  0  0  0  0  0  0  0  0  0  0  0
   -3.9214    1.0366    0.6420 C   0  0  0  0  0  0  0  0  0  0  0  0
   -2.3011   -1.6586    0.3439 O   0  0  0  0  0  0  0  0  0  0  0  0
   -1.6420   -2.7986    0.9013 C   0  0  0  0  0  0  0  0  0  0  0  0
    1.7692   -3.0648   -2.7312 H   0  0  0  0  0  0  0  0  0  0  0  0
    1.5329   -4.7936   -2.4370 H   0  0  0  0  0  0  0  0  0  0  0  0
    0.3004   -3.6257   -1.9302 H   0  0  0  0  0  0  0  0  0  0  0  0
    3.1479   -3.7733   -0.8075 H   0  0  0  0  0  0  0  0  0  0  0  0
    1.6935   -4.4144    0.0228 H   0  0  0  0  0  0  0  0  0  0  0  0
    2.8657    0.5559    0.4404 H   0  0  0  0  0  0  0  0  0  0  0  0
    1.4786   -0.3360    1.1384 H   0  0  0  0  0  0  0  0  0  0  0  0
    0.3854    3.8822    1.4213 H   0  0  0  0  0  0  0  0  0  0  0  0
    2.1150    4.3248    1.2477 H   0  0  0  0  0  0  0  0  0  0  0  0
    0.6569    6.0086    0.1178 H   0  0  0  0  0  0  0  0  0  0  0  0
    1.6407    5.1437   -1.0734 H   0  0  0  0  0  0  0  0  0  0  0  0
   -0.0699    4.7334   -0.8667 H   0  0  0  0  0  0  0  0  0  0  0  0
   -4.5775    0.1858    0.8248 H   0  0  0  0  0  0  0  0  0  0  0  0
   -4.4417    1.8177    0.0936 H   0  0  0  0  0  0  0  0  0  0  0  0
   -3.5434    1.4245    1.5899 H   0  0  0  0  0  0  0  0  0  0  0  0
   -1.4283   -2.6227    1.9571 H   0  0  0  0  0  0  0  0  0  0  0  0
   -0.7100   -2.9918    0.3705 H   0  0  0  0  0  0  0  0  0  0  0  0
   -2.3353   -3.6266    0.7815 H   0  0  0  0  0  0  0  0  0  0  0  0
  1  2  1  0  0  0  0
  2  3  1  0  0  0  0
  3  4  1  0  0  0  0
  4  5  2  0  0  0  0
  4  6  1  0  0  0  0
  6  7  1  0  0  0  0
  7  8  1  0  0  0  0
  7  9  1  0  0  0  0
  9 10  2  0  0  0  0
  9 11  4  0  0  0  0
 11 12  1  0  0  0  0
 12 13  1  0  0  0  0
  7 14  1  0  0  0  0
 14 15  1  0  0  0  0
 15 16  2  0  0  0  0
 15 17  1  0  0  0  0
 17 18  1  0  0  0  0
 15 19  1  0  0  0  0
 19 20  1  0  0  0  0
  1 21  1  0  0  0  0
  1 22  1  0  0  0  0
  1 23  1  0  0  0  0
  2 24  1  0  0  0  0
  2 25  1  0  0  0  0
  6 26  1  0  0  0  0
  6 27  1  0  0  0  0
 12 28  1  0  0  0  0
 12 29  1  0  0  0  0
 13 30  1  0  0  0  0
 13 31  1  0  0  0  0
 13 32  1  0  0  0  0
 18 33  1  0  0  0  0
 18 34  1  0  0  0  0
 18 35  1  0  0  0  0
 20 36  1  0  0  0  0
 20 37  1  0  0  0  0
 20 38  1  0  0  0  0
M  END
