 xtb: 6.7.1 (edcfbbe)
          04092505213D

 41 40  0     0  0            999 V2000
    4.2021   -1.3964   -2.5109 C   0  0  0  0  0  0  0  0  0  0  0  0
    4.8251   -1.2321   -1.1400 C   0  0  0  0  0  0  0  0  0  0  0  0
    3.8424   -1.2297   -0.0879 O   0  0  0  0  0  0  0  0  0  0  0  0
    2.7577   -0.0797    0.0707 P   0  0  0  0  0  0  0  0  0  0  0  0
    3.3815    1.7455   -0.2475 S   0  0  0  0  0  0  0  0  0  0  0  0
    2.2530   -0.2644    1.5514 O   0  0  0  0  0  0  0  0  0  0  0  0
    1.7276   -1.5049    2.0848 C   0  0  0  0  0  0  0  0  0  0  0  0
    2.8081   -2.2799    2.8103 C   0  0  0  0  0  0  0  0  0  0  0  0
    1.1329   -0.7303   -1.1504 S   0  0  0  0  0  0  0  0  0  0  0  0
    0.1781    0.7942   -0.9985 C   0  0  0  0  0  0  0  0  0  0  0  0
   -0.6514    0.9634    0.6090 S   0  0  0  0  0  0  0  0  0  0  0  0
   -2.6683    0.6411    0.0261 P   0  0  0  0  0  0  0  0  0  0  0  0
   -2.9910    0.5464   -1.9113 S   0  0  0  0  0  0  0  0  0  0  0  0
   -3.2831    1.8517    0.8381 O   0  0  0  0  0  0  0  0  0  0  0  0
   -4.6498    1.9080    1.3042 C   0  0  0  0  0  0  0  0  0  0  0  0
   -5.6487    1.8571    0.1667 C   0  0  0  0  0  0  0  0  0  0  0  0
   -3.2316   -0.6040    0.8427 O   0  0  0  0  0  0  0  0  0  0  0  0
   -3.2246   -1.9408    0.3142 C   0  0  0  0  0  0  0  0  0  0  0  0
   -1.8417   -2.5562    0.3661 C   0  0  0  0  0  0  0  0  0  0  0  0
    3.6278   -0.5081   -2.7695 H   0  0  0  0  0  0  0  0  0  0  0  0
    4.9881   -1.5311   -3.2470 H   0  0  0  0  0  0  0  0  0  0  0  0
    3.5401   -2.2586   -2.5262 H   0  0  0  0  0  0  0  0  0  0  0  0
    5.3916   -0.2977   -1.0837 H   0  0  0  0  0  0  0  0  0  0  0  0
    5.4716   -2.0741   -0.8885 H   0  0  0  0  0  0  0  0  0  0  0  0
    0.9344   -1.1878    2.7649 H   0  0  0  0  0  0  0  0  0  0  0  0
    1.3038   -2.0918    1.2650 H   0  0  0  0  0  0  0  0  0  0  0  0
    3.2528   -1.6619    3.5854 H   0  0  0  0  0  0  0  0  0  0  0  0
    2.3680   -3.1626    3.2634 H   0  0  0  0  0  0  0  0  0  0  0  0
    3.5854   -2.5828    2.1140 H   0  0  0  0  0  0  0  0  0  0  0  0
   -0.5777    0.7862   -1.7884 H   0  0  0  0  0  0  0  0  0  0  0  0
    0.8583    1.6394   -1.1101 H   0  0  0  0  0  0  0  0  0  0  0  0
   -4.8089    1.0840    2.0029 H   0  0  0  0  0  0  0  0  0  0  0  0
   -4.6960    2.8603    1.8352 H   0  0  0  0  0  0  0  0  0  0  0  0
   -6.6523    1.9801    0.5614 H   0  0  0  0  0  0  0  0  0  0  0  0
   -5.4450    2.6484   -0.5512 H   0  0  0  0  0  0  0  0  0  0  0  0
   -5.5838    0.8997   -0.3489 H   0  0  0  0  0  0  0  0  0  0  0  0
   -3.9291   -2.4799    0.9493 H   0  0  0  0  0  0  0  0  0  0  0  0
   -3.5966   -1.9108   -0.7152 H   0  0  0  0  0  0  0  0  0  0  0  0
   -1.9005   -3.5985    0.0700 H   0  0  0  0  0  0  0  0  0  0  0  0
   -1.1743   -2.0363   -0.3206 H   0  0  0  0  0  0  0  0  0  0  0  0
   -1.4390   -2.4889    1.3736 H   0  0  0  0  0  0  0  0  0  0  0  0
  1  2  1  0  0  0  0
  2  3  1  0  0  0  0
  3  4  2  0  0  0  0
  4  5  2  0  0  0  0
  4  6  2  0  0  0  0
  6  7  1  0  0  0  0
  7  8  1  0  0  0  0
  4  9  1  0  0  0  0
  9 10  1  0  0  0  0
 10 11  1  0  0  0  0
 11 12  1  0  0  0  0
 12 13  2  0  0  0  0
 12 14  2  0  0  0  0
 14 15  1  0  0  0  0
 15 16  1  0  0  0  0
 12 17  2  0  0  0  0
 17 18  1  0  0  0  0
 18 19  1  0  0  0  0
  1 20  1  0  0  0  0
  1 21  1  0  0  0  0
  1 22  1  0  0  0  0
  2 23  1  0  0  0  0
  2 24  1  0  0  0  0
  7 25  1  0  0  0  0
  7 26  1  0  0  0  0
  8 27  1  0  0  0  0
  8 28  1  0  0  0  0
  8 29  1  0  0  0  0
 10 30  1  0  0  0  0
 10 31  1  0  0  0  0
 15 32  1  0  0  0  0
 15 33  1  0  0  0  0
 16 34  1  0  0  0  0
 16 35  1  0  0  0  0
 16 36  1  0  0  0  0
 18 37  1  0  0  0  0
 18 38  1  0  0  0  0
 19 39  1  0  0  0  0
 19 40  1  0  0  0  0
 19 41  1  0  0  0  0
M  END
