 xtb: 6.7.1 (edcfbbe)
          04092505213D

 41 40  0     0  0            999 V2000
    3.5033   -2.1062   -2.1504 C   0  0  0  0  0  0  0  0  0  0  0  0
    4.0241   -0.7287   -1.7938 C   0  0  0  0  0  0  0  0  0  0  0  0
    3.6070   -0.3189   -0.4823 O   0  0  0  0  0  0  0  0  0  0  0  0
    2.0918    0.0431   -0.1265 P   0  0  0  0  0  0  0  0  0  0  0  0
    1.1847    0.9587   -1.6123 S   0  0  0  0  0  0  0  0  0  0  0  0
    2.3000    0.7390    1.2745 O   0  0  0  0  0  0  0  0  0  0  0  0
    3.1870    1.8482    1.5228 C   0  0  0  0  0  0  0  0  0  0  0  0
    2.6753    3.1323    0.9016 C   0  0  0  0  0  0  0  0  0  0  0  0
    1.1984   -1.7368    0.5602 S   0  0  0  0  0  0  0  0  0  0  0  0
   -0.1717   -1.8940   -0.6366 C   0  0  0  0  0  0  0  0  0  0  0  0
   -1.8162   -1.8634    0.1170 S   0  0  0  0  0  0  0  0  0  0  0  0
   -2.0606    0.2330    0.4231 P   0  0  0  0  0  0  0  0  0  0  0  0
   -0.7877    1.1778    1.5717 S   0  0  0  0  0  0  0  0  0  0  0  0
   -3.5929    0.3177    0.8397 O   0  0  0  0  0  0  0  0  0  0  0  0
   -4.2306   -0.4883    1.8484 C   0  0  0  0  0  0  0  0  0  0  0  0
   -3.4940   -0.4681    3.1710 C   0  0  0  0  0  0  0  0  0  0  0  0
   -2.0774    0.8993   -1.0017 O   0  0  0  0  0  0  0  0  0  0  0  0
   -2.9664    0.4913   -2.0743 C   0  0  0  0  0  0  0  0  0  0  0  0
   -2.3823    1.0054   -3.3737 C   0  0  0  0  0  0  0  0  0  0  0  0
    3.7480   -2.8169   -1.3651 H   0  0  0  0  0  0  0  0  0  0  0  0
    2.4216   -2.0715   -2.2714 H   0  0  0  0  0  0  0  0  0  0  0  0
    3.9524   -2.4291   -3.0841 H   0  0  0  0  0  0  0  0  0  0  0  0
    3.6726    0.0150   -2.5165 H   0  0  0  0  0  0  0  0  0  0  0  0
    5.1135   -0.7105   -1.7398 H   0  0  0  0  0  0  0  0  0  0  0  0
    3.2034    1.9159    2.6120 H   0  0  0  0  0  0  0  0  0  0  0  0
    4.1813    1.5925    1.1477 H   0  0  0  0  0  0  0  0  0  0  0  0
    3.2951    3.9633    1.2224 H   0  0  0  0  0  0  0  0  0  0  0  0
    2.7000    3.0676   -0.1853 H   0  0  0  0  0  0  0  0  0  0  0  0
    1.6469    3.3061    1.2131 H   0  0  0  0  0  0  0  0  0  0  0  0
   -0.0926   -2.8695   -1.1090 H   0  0  0  0  0  0  0  0  0  0  0  0
   -0.0864   -1.0812   -1.3652 H   0  0  0  0  0  0  0  0  0  0  0  0
   -5.2245   -0.0463    1.9381 H   0  0  0  0  0  0  0  0  0  0  0  0
   -4.3090   -1.5093    1.4650 H   0  0  0  0  0  0  0  0  0  0  0  0
   -2.5074   -0.9165    3.0584 H   0  0  0  0  0  0  0  0  0  0  0  0
   -3.3660    0.5544    3.5191 H   0  0  0  0  0  0  0  0  0  0  0  0
   -4.0572   -1.0326    3.9070 H   0  0  0  0  0  0  0  0  0  0  0  0
   -3.0439   -0.6001   -2.0704 H   0  0  0  0  0  0  0  0  0  0  0  0
   -3.9479    0.9240   -1.8728 H   0  0  0  0  0  0  0  0  0  0  0  0
   -1.3718    0.6269   -3.5076 H   0  0  0  0  0  0  0  0  0  0  0  0
   -3.0049    0.6797   -4.2004 H   0  0  0  0  0  0  0  0  0  0  0  0
   -2.3362    2.0904   -3.3585 H   0  0  0  0  0  0  0  0  0  0  0  0
  1  2  1  0  0  0  0
  2  3  1  0  0  0  0
  3  4  2  0  0  0  0
  4  5  2  0  0  0  0
  4  6  2  0  0  0  0
  6  7  1  0  0  0  0
  7  8  1  0  0  0  0
  4  9  1  0  0  0  0
  9 10  1  0  0  0  0
 10 11  1  0  0  0  0
 11 12  1  0  0  0  0
 12 13  2  0  0  0  0
 12 14  2  0  0  0  0
 14 15  1  0  0  0  0
 15 16  1  0  0  0  0
 12 17  2  0  0  0  0
 17 18  1  0  0  0  0
 18 19  1  0  0  0  0
  1 20  1  0  0  0  0
  1 21  1  0  0  0  0
  1 22  1  0  0  0  0
  2 23  1  0  0  0  0
  2 24  1  0  0  0  0
  7 25  1  0  0  0  0
  7 26  1  0  0  0  0
  8 27  1  0  0  0  0
  8 28  1  0  0  0  0
  8 29  1  0  0  0  0
 10 30  1  0  0  0  0
 10 31  1  0  0  0  0
 15 32  1  0  0  0  0
 15 33  1  0  0  0  0
 16 34  1  0  0  0  0
 16 35  1  0  0  0  0
 16 36  1  0  0  0  0
 18 37  1  0  0  0  0
 18 38  1  0  0  0  0
 19 39  1  0  0  0  0
 19 40  1  0  0  0  0
 19 41  1  0  0  0  0
M  END
