 xtb: 6.7.1 (edcfbbe)
          04092505213D

 41 40  0     0  0            999 V2000
    4.4309   -0.6959   -1.6795 C   0  0  0  0  0  0  0  0  0  0  0  0
    3.1531    0.0753   -1.9276 C   0  0  0  0  0  0  0  0  0  0  0  0
    2.6592    0.7418   -0.7414 O   0  0  0  0  0  0  0  0  0  0  0  0
    2.3541    0.0860    0.6584 P   0  0  0  0  0  0  0  0  0  0  0  0
    1.2016    1.2417    1.7372 S   0  0  0  0  0  0  0  0  0  0  0  0
    3.8047   -0.1501    1.2600 O   0  0  0  0  0  0  0  0  0  0  0  0
    4.0457   -0.3431    2.6650 C   0  0  0  0  0  0  0  0  0  0  0  0
    3.4496   -1.6366    3.1817 C   0  0  0  0  0  0  0  0  0  0  0  0
    1.6112   -1.8783    0.2759 S   0  0  0  0  0  0  0  0  0  0  0  0
   -0.1235   -1.4363    0.1297 C   0  0  0  0  0  0  0  0  0  0  0  0
   -0.3876   -0.4311   -1.3870 S   0  0  0  0  0  0  0  0  0  0  0  0
   -2.2821    0.3288   -0.9204 P   0  0  0  0  0  0  0  0  0  0  0  0
   -3.0830    1.5311   -2.2417 S   0  0  0  0  0  0  0  0  0  0  0  0
   -2.1808    0.9292    0.5561 O   0  0  0  0  0  0  0  0  0  0  0  0
   -2.0959    2.3387    0.8296 C   0  0  0  0  0  0  0  0  0  0  0  0
   -3.4371    2.8476    1.3177 C   0  0  0  0  0  0  0  0  0  0  0  0
   -3.0236   -1.0464   -0.6505 O   0  0  0  0  0  0  0  0  0  0  0  0
   -4.4452   -1.0648   -0.3751 C   0  0  0  0  0  0  0  0  0  0  0  0
   -4.9450   -2.4753   -0.6056 C   0  0  0  0  0  0  0  0  0  0  0  0
    4.7965   -1.0846   -2.6249 H   0  0  0  0  0  0  0  0  0  0  0  0
    5.1835   -0.0453   -1.2419 H   0  0  0  0  0  0  0  0  0  0  0  0
    4.2457   -1.5273   -1.0022 H   0  0  0  0  0  0  0  0  0  0  0  0
    2.3590   -0.5780   -2.3017 H   0  0  0  0  0  0  0  0  0  0  0  0
    3.3052    0.8982   -2.6276 H   0  0  0  0  0  0  0  0  0  0  0  0
    5.1337   -0.3418    2.7423 H   0  0  0  0  0  0  0  0  0  0  0  0
    3.6341    0.5140    3.2074 H   0  0  0  0  0  0  0  0  0  0  0  0
    3.7780   -1.7973    4.2036 H   0  0  0  0  0  0  0  0  0  0  0  0
    2.3626   -1.5793    3.1666 H   0  0  0  0  0  0  0  0  0  0  0  0
    3.7660   -2.4734    2.5645 H   0  0  0  0  0  0  0  0  0  0  0  0
   -0.4270   -0.8429    0.9935 H   0  0  0  0  0  0  0  0  0  0  0  0
   -0.6875   -2.3612    0.0483 H   0  0  0  0  0  0  0  0  0  0  0  0
   -1.3174    2.4418    1.5887 H   0  0  0  0  0  0  0  0  0  0  0  0
   -1.7890    2.8651   -0.0790 H   0  0  0  0  0  0  0  0  0  0  0  0
   -3.3440    3.8956    1.5824 H   0  0  0  0  0  0  0  0  0  0  0  0
   -4.1806    2.7438    0.5297 H   0  0  0  0  0  0  0  0  0  0  0  0
   -3.7566    2.2832    2.1890 H   0  0  0  0  0  0  0  0  0  0  0  0
   -4.5929   -0.7477    0.6600 H   0  0  0  0  0  0  0  0  0  0  0  0
   -4.9355   -0.3492   -1.0437 H   0  0  0  0  0  0  0  0  0  0  0  0
   -4.4339   -3.1666    0.0580 H   0  0  0  0  0  0  0  0  0  0  0  0
   -6.0115   -2.5098   -0.4083 H   0  0  0  0  0  0  0  0  0  0  0  0
   -4.7610   -2.7721   -1.6343 H   0  0  0  0  0  0  0  0  0  0  0  0
  1  2  1  0  0  0  0
  2  3  1  0  0  0  0
  3  4  2  0  0  0  0
  4  5  2  0  0  0  0
  4  6  2  0  0  0  0
  6  7  1  0  0  0  0
  7  8  1  0  0  0  0
  4  9  1  0  0  0  0
  9 10  1  0  0  0  0
 10 11  1  0  0  0  0
 11 12  1  0  0  0  0
 12 13  2  0  0  0  0
 12 14  2  0  0  0  0
 14 15  1  0  0  0  0
 15 16  1  0  0  0  0
 12 17  2  0  0  0  0
 17 18  1  0  0  0  0
 18 19  1  0  0  0  0
  1 20  1  0  0  0  0
  1 21  1  0  0  0  0
  1 22  1  0  0  0  0
  2 23  1  0  0  0  0
  2 24  1  0  0  0  0
  7 25  1  0  0  0  0
  7 26  1  0  0  0  0
  8 27  1  0  0  0  0
  8 28  1  0  0  0  0
  8 29  1  0  0  0  0
 10 30  1  0  0  0  0
 10 31  1  0  0  0  0
 15 32  1  0  0  0  0
 15 33  1  0  0  0  0
 16 34  1  0  0  0  0
 16 35  1  0  0  0  0
 16 36  1  0  0  0  0
 18 37  1  0  0  0  0
 18 38  1  0  0  0  0
 19 39  1  0  0  0  0
 19 40  1  0  0  0  0
 19 41  1  0  0  0  0
M  END
