 xtb: 6.7.1 (edcfbbe)
          04092505213D

 41 40  0     0  0            999 V2000
    4.2366   -2.3494   -0.5603 C   0  0  0  0  0  0  0  0  0  0  0  0
    4.1680   -0.9064   -1.0226 C   0  0  0  0  0  0  0  0  0  0  0  0
    3.4956   -0.0824   -0.0583 O   0  0  0  0  0  0  0  0  0  0  0  0
    1.9488    0.3025   -0.1198 P   0  0  0  0  0  0  0  0  0  0  0  0
    1.3330    0.6707   -1.9449 S   0  0  0  0  0  0  0  0  0  0  0  0
    1.9038    1.4355    0.9750 O   0  0  0  0  0  0  0  0  0  0  0  0
    1.9940    2.8372    0.6521 C   0  0  0  0  0  0  0  0  0  0  0  0
    3.3442    3.1990    0.0709 C   0  0  0  0  0  0  0  0  0  0  0  0
    0.9587   -1.2029    1.0012 S   0  0  0  0  0  0  0  0  0  0  0  0
    0.2966   -2.2207   -0.3444 C   0  0  0  0  0  0  0  0  0  0  0  0
   -1.2177   -1.5972   -1.1720 S   0  0  0  0  0  0  0  0  0  0  0  0
   -2.0297   -0.2580    0.2320 P   0  0  0  0  0  0  0  0  0  0  0  0
   -1.2476    1.5193    0.5612 S   0  0  0  0  0  0  0  0  0  0  0  0
   -2.1484   -1.2214    1.4804 O   0  0  0  0  0  0  0  0  0  0  0  0
   -2.2481   -0.7331    2.8330 C   0  0  0  0  0  0  0  0  0  0  0  0
   -3.5858   -0.0718    3.0886 C   0  0  0  0  0  0  0  0  0  0  0  0
   -3.5372   -0.1606   -0.2645 O   0  0  0  0  0  0  0  0  0  0  0  0
   -3.9862    0.8327   -1.1997 C   0  0  0  0  0  0  0  0  0  0  0  0
   -3.4072    0.6106   -2.5824 C   0  0  0  0  0  0  0  0  0  0  0  0
    4.8212   -2.9234   -1.2721 H   0  0  0  0  0  0  0  0  0  0  0  0
    4.7077   -2.4017    0.4174 H   0  0  0  0  0  0  0  0  0  0  0  0
    3.2410   -2.7811   -0.4875 H   0  0  0  0  0  0  0  0  0  0  0  0
    3.6541   -0.8130   -1.9860 H   0  0  0  0  0  0  0  0  0  0  0  0
    5.1677   -0.4753   -1.1041 H   0  0  0  0  0  0  0  0  0  0  0  0
    1.1837    3.0836   -0.0420 H   0  0  0  0  0  0  0  0  0  0  0  0
    1.8121    3.3329    1.6068 H   0  0  0  0  0  0  0  0  0  0  0  0
    4.1375    2.8820    0.7428 H   0  0  0  0  0  0  0  0  0  0  0  0
    3.4767    2.7055   -0.8915 H   0  0  0  0  0  0  0  0  0  0  0  0
    3.3958    4.2737   -0.0728 H   0  0  0  0  0  0  0  0  0  0  0  0
    0.0590   -3.1829    0.1029 H   0  0  0  0  0  0  0  0  0  0  0  0
    1.0343   -2.3232   -1.1394 H   0  0  0  0  0  0  0  0  0  0  0  0
   -2.1092   -1.6265    3.4428 H   0  0  0  0  0  0  0  0  0  0  0  0
   -1.4255   -0.0320    3.0109 H   0  0  0  0  0  0  0  0  0  0  0  0
   -3.6608    0.1993    4.1370 H   0  0  0  0  0  0  0  0  0  0  0  0
   -3.6730    0.8290    2.4820 H   0  0  0  0  0  0  0  0  0  0  0  0
   -4.3942   -0.7497    2.8282 H   0  0  0  0  0  0  0  0  0  0  0  0
   -5.0719    0.7273   -1.1941 H   0  0  0  0  0  0  0  0  0  0  0  0
   -3.7039    1.8203   -0.8194 H   0  0  0  0  0  0  0  0  0  0  0  0
   -3.6100   -0.4029   -2.9194 H   0  0  0  0  0  0  0  0  0  0  0  0
   -3.8457    1.3194   -3.2775 H   0  0  0  0  0  0  0  0  0  0  0  0
   -2.3269    0.7602   -2.5632 H   0  0  0  0  0  0  0  0  0  0  0  0
  1  2  1  0  0  0  0
  2  3  1  0  0  0  0
  3  4  2  0  0  0  0
  4  5  2  0  0  0  0
  4  6  2  0  0  0  0
  6  7  1  0  0  0  0
  7  8  1  0  0  0  0
  4  9  1  0  0  0  0
  9 10  1  0  0  0  0
 10 11  1  0  0  0  0
 11 12  1  0  0  0  0
 12 13  2  0  0  0  0
 12 14  2  0  0  0  0
 14 15  1  0  0  0  0
 15 16  1  0  0  0  0
 12 17  2  0  0  0  0
 17 18  1  0  0  0  0
 18 19  1  0  0  0  0
  1 20  1  0  0  0  0
  1 21  1  0  0  0  0
  1 22  1  0  0  0  0
  2 23  1  0  0  0  0
  2 24  1  0  0  0  0
  7 25  1  0  0  0  0
  7 26  1  0  0  0  0
  8 27  1  0  0  0  0
  8 28  1  0  0  0  0
  8 29  1  0  0  0  0
 10 30  1  0  0  0  0
 10 31  1  0  0  0  0
 15 32  1  0  0  0  0
 15 33  1  0  0  0  0
 16 34  1  0  0  0  0
 16 35  1  0  0  0  0
 16 36  1  0  0  0  0
 18 37  1  0  0  0  0
 18 38  1  0  0  0  0
 19 39  1  0  0  0  0
 19 40  1  0  0  0  0
 19 41  1  0  0  0  0
M  END
