 xtb: 6.7.1 (edcfbbe)
          04092505213D

 41 40  0     0  0            999 V2000
    4.8714    0.7736   -2.0021 C   0  0  0  0  0  0  0  0  0  0  0  0
    4.1486   -0.5541   -2.1115 C   0  0  0  0  0  0  0  0  0  0  0  0
    3.4078   -0.8648   -0.9170 O   0  0  0  0  0  0  0  0  0  0  0  0
    2.0664   -0.0824   -0.5155 P   0  0  0  0  0  0  0  0  0  0  0  0
    1.0114    0.5059   -2.0499 S   0  0  0  0  0  0  0  0  0  0  0  0
    2.5159    1.1349    0.3904 O   0  0  0  0  0  0  0  0  0  0  0  0
    3.4506    1.0330    1.4909 C   0  0  0  0  0  0  0  0  0  0  0  0
    2.7334    0.8179    2.8086 C   0  0  0  0  0  0  0  0  0  0  0  0
    1.2634   -1.5830    0.7360 S   0  0  0  0  0  0  0  0  0  0  0  0
   -0.1512   -2.1091   -0.2860 C   0  0  0  0  0  0  0  0  0  0  0  0
   -1.7385   -1.9229    0.5648 S   0  0  0  0  0  0  0  0  0  0  0  0
   -2.0031    0.1634    0.4747 P   0  0  0  0  0  0  0  0  0  0  0  0
   -0.6510    1.3853    1.1824 S   0  0  0  0  0  0  0  0  0  0  0  0
   -3.3674    0.3974    1.2454 O   0  0  0  0  0  0  0  0  0  0  0  0
   -4.5924   -0.3107    0.9310 C   0  0  0  0  0  0  0  0  0  0  0  0
   -4.8585   -1.3943    1.9563 C   0  0  0  0  0  0  0  0  0  0  0  0
   -2.3032    0.2925   -1.0936 O   0  0  0  0  0  0  0  0  0  0  0  0
   -2.2704    1.5591   -1.7728 C   0  0  0  0  0  0  0  0  0  0  0  0
   -3.4810    2.4054   -1.4373 C   0  0  0  0  0  0  0  0  0  0  0  0
    4.1472    1.5793   -1.8814 H   0  0  0  0  0  0  0  0  0  0  0  0
    5.5449    0.7729   -1.1488 H   0  0  0  0  0  0  0  0  0  0  0  0
    5.4417    0.9471   -2.9093 H   0  0  0  0  0  0  0  0  0  0  0  0
    4.8439   -1.3883   -2.2138 H   0  0  0  0  0  0  0  0  0  0  0  0
    3.4528   -0.5430   -2.9564 H   0  0  0  0  0  0  0  0  0  0  0  0
    4.1557    0.2232    1.2851 H   0  0  0  0  0  0  0  0  0  0  0  0
    3.9680    1.9941    1.4795 H   0  0  0  0  0  0  0  0  0  0  0  0
    1.9265    1.5402    2.9098 H   0  0  0  0  0  0  0  0  0  0  0  0
    2.3079   -0.1816    2.8612 H   0  0  0  0  0  0  0  0  0  0  0  0
    3.4391    0.9476    3.6229 H   0  0  0  0  0  0  0  0  0  0  0  0
   -0.0483   -3.1728   -0.4829 H   0  0  0  0  0  0  0  0  0  0  0  0
   -0.1582   -1.5273   -1.2112 H   0  0  0  0  0  0  0  0  0  0  0  0
   -5.3677    0.4573    0.9596 H   0  0  0  0  0  0  0  0  0  0  0  0
   -4.5178   -0.7260   -0.0770 H   0  0  0  0  0  0  0  0  0  0  0  0
   -4.8687   -0.9648    2.9541 H   0  0  0  0  0  0  0  0  0  0  0  0
   -5.8229   -1.8475    1.7500 H   0  0  0  0  0  0  0  0  0  0  0  0
   -4.0867   -2.1595    1.9107 H   0  0  0  0  0  0  0  0  0  0  0  0
   -1.3451    2.0781   -1.5019 H   0  0  0  0  0  0  0  0  0  0  0  0
   -2.2321    1.2925   -2.8301 H   0  0  0  0  0  0  0  0  0  0  0  0
   -4.3955    1.8675   -1.6735 H   0  0  0  0  0  0  0  0  0  0  0  0
   -3.4745    2.6546   -0.3766 H   0  0  0  0  0  0  0  0  0  0  0  0
   -3.4438    3.3235   -2.0150 H   0  0  0  0  0  0  0  0  0  0  0  0
  1  2  1  0  0  0  0
  2  3  1  0  0  0  0
  3  4  1  0  0  0  0
  4  5  2  0  0  0  0
  4  6  2  0  0  0  0
  6  7  1  0  0  0  0
  7  8  1  0  0  0  0
  4  9  1  0  0  0  0
  9 10  1  0  0  0  0
 10 11  1  0  0  0  0
 11 12  1  0  0  0  0
 12 13  2  0  0  0  0
 12 14  2  0  0  0  0
 14 15  1  0  0  0  0
 15 16  1  0  0  0  0
 12 17  1  0  0  0  0
 17 18  1  0  0  0  0
 18 19  1  0  0  0  0
  1 20  1  0  0  0  0
  1 21  1  0  0  0  0
  1 22  1  0  0  0  0
  2 23  1  0  0  0  0
  2 24  1  0  0  0  0
  7 25  1  0  0  0  0
  7 26  1  0  0  0  0
  8 27  1  0  0  0  0
  8 28  1  0  0  0  0
  8 29  1  0  0  0  0
 10 30  1  0  0  0  0
 10 31  1  0  0  0  0
 15 32  1  0  0  0  0
 15 33  1  0  0  0  0
 16 34  1  0  0  0  0
 16 35  1  0  0  0  0
 16 36  1  0  0  0  0
 18 37  1  0  0  0  0
 18 38  1  0  0  0  0
 19 39  1  0  0  0  0
 19 40  1  0  0  0  0
 19 41  1  0  0  0  0
M  END
