 xtb: 6.7.1 (edcfbbe)
          04092505203D

 41 40  0     0  0            999 V2000
    4.4073   -0.1958   -2.1423 C   0  0  0  0  0  0  0  0  0  0  0  0
    4.4112    0.8922   -1.0880 C   0  0  0  0  0  0  0  0  0  0  0  0
    3.6480    0.5322    0.0765 O   0  0  0  0  0  0  0  0  0  0  0  0
    2.0691    0.3326    0.0521 P   0  0  0  0  0  0  0  0  0  0  0  0
    1.0790    1.6198   -1.0449 S   0  0  0  0  0  0  0  0  0  0  0  0
    1.7148    0.4529    1.5853 O   0  0  0  0  0  0  0  0  0  0  0  0
    2.4014   -0.3195    2.6123 C   0  0  0  0  0  0  0  0  0  0  0  0
    1.4817   -1.3752    3.1915 C   0  0  0  0  0  0  0  0  0  0  0  0
    1.8531   -1.7203   -0.4533 S   0  0  0  0  0  0  0  0  0  0  0  0
    0.0900   -1.7066   -0.8501 C   0  0  0  0  0  0  0  0  0  0  0  0
   -0.9408   -1.1752    0.5527 S   0  0  0  0  0  0  0  0  0  0  0  0
   -2.1388    0.3300   -0.3591 P   0  0  0  0  0  0  0  0  0  0  0  0
   -2.0862    0.3792   -2.3155 S   0  0  0  0  0  0  0  0  0  0  0  0
   -1.7760    1.7130    0.3086 O   0  0  0  0  0  0  0  0  0  0  0  0
   -2.1947    2.1568    1.6210 C   0  0  0  0  0  0  0  0  0  0  0  0
   -1.6053    1.3101    2.7290 C   0  0  0  0  0  0  0  0  0  0  0  0
   -3.5855    0.0665    0.2571 O   0  0  0  0  0  0  0  0  0  0  0  0
   -4.5373   -0.8278   -0.3455 C   0  0  0  0  0  0  0  0  0  0  0  0
   -4.0725   -2.2697   -0.3352 C   0  0  0  0  0  0  0  0  0  0  0  0
    4.6945   -1.1491   -1.7058 H   0  0  0  0  0  0  0  0  0  0  0  0
    3.4128   -0.2913   -2.5759 H   0  0  0  0  0  0  0  0  0  0  0  0
    5.1070    0.0673   -2.9291 H   0  0  0  0  0  0  0  0  0  0  0  0
    4.0015    1.8224   -1.4937 H   0  0  0  0  0  0  0  0  0  0  0  0
    5.4133    1.0682   -0.6939 H   0  0  0  0  0  0  0  0  0  0  0  0
    3.2972   -0.7669    2.1781 H   0  0  0  0  0  0  0  0  0  0  0  0
    2.6881    0.4166    3.3648 H   0  0  0  0  0  0  0  0  0  0  0  0
    1.1996   -2.0994    2.4313 H   0  0  0  0  0  0  0  0  0  0  0  0
    2.0024   -1.8870    3.9945 H   0  0  0  0  0  0  0  0  0  0  0  0
    0.5783   -0.9177    3.5837 H   0  0  0  0  0  0  0  0  0  0  0  0
   -0.1642   -2.7326   -1.1045 H   0  0  0  0  0  0  0  0  0  0  0  0
   -0.1032   -1.0329   -1.6898 H   0  0  0  0  0  0  0  0  0  0  0  0
   -1.8270    3.1838    1.6605 H   0  0  0  0  0  0  0  0  0  0  0  0
   -3.2861    2.1485    1.6536 H   0  0  0  0  0  0  0  0  0  0  0  0
   -0.5234    1.2641    2.6228 H   0  0  0  0  0  0  0  0  0  0  0  0
   -1.8549    1.7549    3.6873 H   0  0  0  0  0  0  0  0  0  0  0  0
   -2.0093    0.2996    2.6867 H   0  0  0  0  0  0  0  0  0  0  0  0
   -5.4360   -0.6897    0.2575 H   0  0  0  0  0  0  0  0  0  0  0  0
   -4.7203   -0.4927   -1.3710 H   0  0  0  0  0  0  0  0  0  0  0  0
   -4.8835   -2.9059   -0.6747 H   0  0  0  0  0  0  0  0  0  0  0  0
   -3.2265   -2.3894   -1.0104 H   0  0  0  0  0  0  0  0  0  0  0  0
   -3.7733   -2.5672    0.6665 H   0  0  0  0  0  0  0  0  0  0  0  0
  1  2  1  0  0  0  0
  2  3  1  0  0  0  0
  3  4  2  0  0  0  0
  4  5  2  0  0  0  0
  4  6  2  0  0  0  0
  6  7  1  0  0  0  0
  7  8  1  0  0  0  0
  4  9  1  0  0  0  0
  9 10  1  0  0  0  0
 10 11  1  0  0  0  0
 11 12  1  0  0  0  0
 12 13  2  0  0  0  0
 12 14  2  0  0  0  0
 14 15  1  0  0  0  0
 15 16  1  0  0  0  0
 12 17  2  0  0  0  0
 17 18  1  0  0  0  0
 18 19  1  0  0  0  0
  1 20  1  0  0  0  0
  1 21  1  0  0  0  0
  1 22  1  0  0  0  0
  2 23  1  0  0  0  0
  2 24  1  0  0  0  0
  7 25  1  0  0  0  0
  7 26  1  0  0  0  0
  8 27  1  0  0  0  0
  8 28  1  0  0  0  0
  8 29  1  0  0  0  0
 10 30  1  0  0  0  0
 10 31  1  0  0  0  0
 15 32  1  0  0  0  0
 15 33  1  0  0  0  0
 16 34  1  0  0  0  0
 16 35  1  0  0  0  0
 16 36  1  0  0  0  0
 18 37  1  0  0  0  0
 18 38  1  0  0  0  0
 19 39  1  0  0  0  0
 19 40  1  0  0  0  0
 19 41  1  0  0  0  0
M  END
