 xtb: 6.7.1 (edcfbbe)
          04092505203D

 41 40  0     0  0            999 V2000
    5.3048   -1.3920   -1.1708 C   0  0  0  0  0  0  0  0  0  0  0  0
    3.8888   -1.7029   -1.6162 C   0  0  0  0  0  0  0  0  0  0  0  0
    2.9819   -1.7121   -0.4961 O   0  0  0  0  0  0  0  0  0  0  0  0
    2.1923   -0.4205   -0.0162 P   0  0  0  0  0  0  0  0  0  0  0  0
    3.2422    1.1706    0.4584 S   0  0  0  0  0  0  0  0  0  0  0  0
    1.3040   -1.0223    1.1447 O   0  0  0  0  0  0  0  0  0  0  0  0
    1.6933   -0.9178    2.5314 C   0  0  0  0  0  0  0  0  0  0  0  0
    2.9056   -1.7738    2.8284 C   0  0  0  0  0  0  0  0  0  0  0  0
    0.7715   -0.1460   -1.5643 S   0  0  0  0  0  0  0  0  0  0  0  0
    0.2625    1.5199   -1.0689 C   0  0  0  0  0  0  0  0  0  0  0  0
   -0.7313    1.5219    0.4417 S   0  0  0  0  0  0  0  0  0  0  0  0
   -2.4125    0.4934   -0.3889 P   0  0  0  0  0  0  0  0  0  0  0  0
   -2.7717    0.8707   -2.2720 S   0  0  0  0  0  0  0  0  0  0  0  0
   -3.5739    0.8681    0.6284 O   0  0  0  0  0  0  0  0  0  0  0  0
   -4.1648    2.1855    0.6353 C   0  0  0  0  0  0  0  0  0  0  0  0
   -5.4707    2.1038    1.3990 C   0  0  0  0  0  0  0  0  0  0  0  0
   -2.2100   -1.0391   -0.1003 O   0  0  0  0  0  0  0  0  0  0  0  0
   -2.0990   -1.5755    1.2446 C   0  0  0  0  0  0  0  0  0  0  0  0
   -1.4420   -2.9358    1.1456 C   0  0  0  0  0  0  0  0  0  0  0  0
    5.9681   -1.4446   -2.0282 H   0  0  0  0  0  0  0  0  0  0  0  0
    5.3568   -0.3927   -0.7444 H   0  0  0  0  0  0  0  0  0  0  0  0
    5.6278   -2.1106   -0.4227 H   0  0  0  0  0  0  0  0  0  0  0  0
    3.8152   -2.7092   -2.0330 H   0  0  0  0  0  0  0  0  0  0  0  0
    3.5399   -0.9775   -2.3570 H   0  0  0  0  0  0  0  0  0  0  0  0
    1.8937    0.1343    2.7578 H   0  0  0  0  0  0  0  0  0  0  0  0
    0.8131   -1.2552    3.0799 H   0  0  0  0  0  0  0  0  0  0  0  0
    3.7642   -1.3963    2.2740 H   0  0  0  0  0  0  0  0  0  0  0  0
    3.1254   -1.7343    3.8906 H   0  0  0  0  0  0  0  0  0  0  0  0
    2.7220   -2.8030    2.5321 H   0  0  0  0  0  0  0  0  0  0  0  0
   -0.3290    1.9235   -1.8905 H   0  0  0  0  0  0  0  0  0  0  0  0
    1.1447    2.1290   -0.8689 H   0  0  0  0  0  0  0  0  0  0  0  0
   -3.4610    2.8710    1.1148 H   0  0  0  0  0  0  0  0  0  0  0  0
   -4.3233    2.5001   -0.4013 H   0  0  0  0  0  0  0  0  0  0  0  0
   -5.9304    3.0863    1.4219 H   0  0  0  0  0  0  0  0  0  0  0  0
   -6.1442    1.4044    0.9117 H   0  0  0  0  0  0  0  0  0  0  0  0
   -5.2872    1.7682    2.4154 H   0  0  0  0  0  0  0  0  0  0  0  0
   -1.5058   -0.8803    1.8464 H   0  0  0  0  0  0  0  0  0  0  0  0
   -3.1073   -1.6410    1.6572 H   0  0  0  0  0  0  0  0  0  0  0  0
   -1.3988   -3.3841    2.1331 H   0  0  0  0  0  0  0  0  0  0  0  0
   -2.0172   -3.5764    0.4833 H   0  0  0  0  0  0  0  0  0  0  0  0
   -0.4349   -2.8374    0.7486 H   0  0  0  0  0  0  0  0  0  0  0  0
  1  2  1  0  0  0  0
  2  3  1  0  0  0  0
  3  4  2  0  0  0  0
  4  5  2  0  0  0  0
  4  6  2  0  0  0  0
  6  7  1  0  0  0  0
  7  8  1  0  0  0  0
  4  9  1  0  0  0  0
  9 10  1  0  0  0  0
 10 11  1  0  0  0  0
 11 12  1  0  0  0  0
 12 13  2  0  0  0  0
 12 14  2  0  0  0  0
 14 15  1  0  0  0  0
 15 16  1  0  0  0  0
 12 17  2  0  0  0  0
 17 18  1  0  0  0  0
 18 19  1  0  0  0  0
  1 20  1  0  0  0  0
  1 21  1  0  0  0  0
  1 22  1  0  0  0  0
  2 23  1  0  0  0  0
  2 24  1  0  0  0  0
  7 25  1  0  0  0  0
  7 26  1  0  0  0  0
  8 27  1  0  0  0  0
  8 28  1  0  0  0  0
  8 29  1  0  0  0  0
 10 30  1  0  0  0  0
 10 31  1  0  0  0  0
 15 32  1  0  0  0  0
 15 33  1  0  0  0  0
 16 34  1  0  0  0  0
 16 35  1  0  0  0  0
 16 36  1  0  0  0  0
 18 37  1  0  0  0  0
 18 38  1  0  0  0  0
 19 39  1  0  0  0  0
 19 40  1  0  0  0  0
 19 41  1  0  0  0  0
M  END
