 xtb: 6.7.1 (edcfbbe)
          04092505203D

 41 40  0     0  0            999 V2000
    1.2589   -0.4821   -3.4668 C   0  0  0  0  0  0  0  0  0  0  0  0
    1.8687   -0.9854   -2.1762 C   0  0  0  0  0  0  0  0  0  0  0  0
    1.8921    0.1205   -1.2380 O   0  0  0  0  0  0  0  0  0  0  0  0
    2.1869   -0.0903    0.2966 P   0  0  0  0  0  0  0  0  0  0  0  0
    2.4415    1.5645    1.3035 S   0  0  0  0  0  0  0  0  0  0  0  0
    3.4702   -1.0339    0.2218 O   0  0  0  0  0  0  0  0  0  0  0  0
    4.3811   -1.2018    1.3233 C   0  0  0  0  0  0  0  0  0  0  0  0
    3.7396   -1.8906    2.5102 C   0  0  0  0  0  0  0  0  0  0  0  0
    0.6855   -1.4195    1.0164 S   0  0  0  0  0  0  0  0  0  0  0  0
   -0.3153   -0.2757    2.0214 C   0  0  0  0  0  0  0  0  0  0  0  0
   -2.0590   -0.2899    1.5654 S   0  0  0  0  0  0  0  0  0  0  0  0
   -1.8444    0.5533   -0.3789 P   0  0  0  0  0  0  0  0  0  0  0  0
   -0.6211    2.0761   -0.5335 S   0  0  0  0  0  0  0  0  0  0  0  0
   -3.3515    0.7485   -0.8387 O   0  0  0  0  0  0  0  0  0  0  0  0
   -4.3786    1.3910   -0.0604 C   0  0  0  0  0  0  0  0  0  0  0  0
   -3.9927    2.7862    0.3828 C   0  0  0  0  0  0  0  0  0  0  0  0
   -1.3629   -0.6108   -1.3274 O   0  0  0  0  0  0  0  0  0  0  0  0
   -2.0804   -1.8640   -1.4752 C   0  0  0  0  0  0  0  0  0  0  0  0
   -2.8593   -1.8740   -2.7739 C   0  0  0  0  0  0  0  0  0  0  0  0
    1.8547    0.3338   -3.8661 H   0  0  0  0  0  0  0  0  0  0  0  0
    1.2244   -1.2938   -4.1863 H   0  0  0  0  0  0  0  0  0  0  0  0
    0.2530   -0.1147   -3.2799 H   0  0  0  0  0  0  0  0  0  0  0  0
    2.8961   -1.3265   -2.3178 H   0  0  0  0  0  0  0  0  0  0  0  0
    1.2758   -1.7943   -1.7385 H   0  0  0  0  0  0  0  0  0  0  0  0
    5.1891   -1.7991    0.8984 H   0  0  0  0  0  0  0  0  0  0  0  0
    4.7567   -0.2149    1.6100 H   0  0  0  0  0  0  0  0  0  0  0  0
    2.9954   -1.2354    2.9606 H   0  0  0  0  0  0  0  0  0  0  0  0
    3.2582   -2.8145    2.1997 H   0  0  0  0  0  0  0  0  0  0  0  0
    4.5039   -2.1110    3.2484 H   0  0  0  0  0  0  0  0  0  0  0  0
    0.0943    0.7324    1.9081 H   0  0  0  0  0  0  0  0  0  0  0  0
   -0.2726   -0.6034    3.0570 H   0  0  0  0  0  0  0  0  0  0  0  0
   -5.2369    1.4109   -0.7343 H   0  0  0  0  0  0  0  0  0  0  0  0
   -4.5969    0.7576    0.8038 H   0  0  0  0  0  0  0  0  0  0  0  0
   -3.1387    2.7441    1.0579 H   0  0  0  0  0  0  0  0  0  0  0  0
   -3.7176    3.3953   -0.4751 H   0  0  0  0  0  0  0  0  0  0  0  0
   -4.8291    3.2466    0.8987 H   0  0  0  0  0  0  0  0  0  0  0  0
   -1.3062   -2.6338   -1.4641 H   0  0  0  0  0  0  0  0  0  0  0  0
   -2.7407   -1.9999   -0.6144 H   0  0  0  0  0  0  0  0  0  0  0  0
   -2.1883   -1.7271   -3.6157 H   0  0  0  0  0  0  0  0  0  0  0  0
   -3.3612   -2.8307   -2.8783 H   0  0  0  0  0  0  0  0  0  0  0  0
   -3.5986   -1.0774   -2.7731 H   0  0  0  0  0  0  0  0  0  0  0  0
  1  2  1  0  0  0  0
  2  3  1  0  0  0  0
  3  4  2  0  0  0  0
  4  5  2  0  0  0  0
  4  6  2  0  0  0  0
  6  7  1  0  0  0  0
  7  8  1  0  0  0  0
  4  9  1  0  0  0  0
  9 10  1  0  0  0  0
 10 11  1  0  0  0  0
 11 12  1  0  0  0  0
 12 13  2  0  0  0  0
 12 14  2  0  0  0  0
 14 15  1  0  0  0  0
 15 16  1  0  0  0  0
 12 17  2  0  0  0  0
 17 18  1  0  0  0  0
 18 19  1  0  0  0  0
  1 20  1  0  0  0  0
  1 21  1  0  0  0  0
  1 22  1  0  0  0  0
  2 23  1  0  0  0  0
  2 24  1  0  0  0  0
  7 25  1  0  0  0  0
  7 26  1  0  0  0  0
  8 27  1  0  0  0  0
  8 28  1  0  0  0  0
  8 29  1  0  0  0  0
 10 30  1  0  0  0  0
 10 31  1  0  0  0  0
 15 32  1  0  0  0  0
 15 33  1  0  0  0  0
 16 34  1  0  0  0  0
 16 35  1  0  0  0  0
 16 36  1  0  0  0  0
 18 37  1  0  0  0  0
 18 38  1  0  0  0  0
 19 39  1  0  0  0  0
 19 40  1  0  0  0  0
 19 41  1  0  0  0  0
M  END
