 xtb: 6.7.1 (edcfbbe)
          04032519423D

 20 20  0     0  0            999 V2000
    0.6326    1.4830   -0.1103 C   0  0  0  0  0  0  0  0  0  0  0  0
    1.5033    0.2195    0.0984 C   0  0  0  0  0  0  0  0  0  0  0  0
    2.4404    0.3001   -0.4655 H   0  0  0  0  0  0  0  0  0  0  0  0
    0.7518   -1.0180   -0.4438 C   0  0  0  0  0  0  0  0  0  0  0  0
    1.2348   -1.9147   -0.0398 H   0  0  0  0  0  0  0  0  0  0  0  0
   -0.7074   -0.9856    0.0399 C   0  0  0  0  0  0  0  0  0  0  0  0
   -1.2473   -1.8456   -0.3695 H   0  0  0  0  0  0  0  0  0  0  0  0
   -1.3954    0.3262   -0.4680 C   0  0  0  0  0  0  0  0  0  0  0  0
   -2.0570    0.1181   -1.3185 H   0  0  0  0  0  0  0  0  0  0  0  0
   -0.4428    1.2222   -1.0017 O   0  0  0  0  0  0  0  0  0  0  0  0
   -2.1356    0.9189    0.5433 O   0  0  0  0  0  0  0  0  0  0  0  0
   -0.7983   -1.0691    1.4400 O   0  0  0  0  0  0  0  0  0  0  0  0
    0.8507   -1.1235   -1.8378 O   0  0  0  0  0  0  0  0  0  0  0  0
    1.7650   -0.0131    1.4665 O   0  0  0  0  0  0  0  0  0  0  0  0
    1.1937    2.2944   -0.5726 H   0  0  0  0  0  0  0  0  0  0  0  0
    0.2321    1.8205    0.8532 H   0  0  0  0  0  0  0  0  0  0  0  0
   -1.9804    0.3975    1.3614 H   0  0  0  0  0  0  0  0  0  0  0  0
    0.0364   -0.7520    1.8349 H   0  0  0  0  0  0  0  0  0  0  0  0
    0.4736   -0.3255   -2.2414 H   0  0  0  0  0  0  0  0  0  0  0  0
    2.4001    0.6341    1.8035 H   0  0  0  0  0  0  0  0  0  0  0  0
  1  2  1  0  0  0  0
  2  3  1  0  0  0  0
  2  4  1  0  0  0  0
  4  5  1  0  0  0  0
  4  6  1  0  0  0  0
  6  7  1  0  0  0  0
  6  8  1  0  0  0  0
  8  9  1  0  0  0  0
  1 10  1  0  0  0  0
  8 10  1  0  0  0  0
  8 11  1  0  0  0  0
  6 12  1  0  0  0  0
  4 13  1  0  0  0  0
  2 14  1  0  0  0  0
  1 15  1  0  0  0  0
  1 16  1  0  0  0  0
 11 17  1  0  0  0  0
 12 18  1  0  0  0  0
 13 19  1  0  0  0  0
 14 20  1  0  0  0  0
M  END
