 xtb: 6.7.1 (edcfbbe)
          04092505203D

 41 40  0     0  0            999 V2000
    4.4236   -1.5123   -0.7538 C   0  0  0  0  0  0  0  0  0  0  0  0
    4.6357   -0.0141   -0.6791 C   0  0  0  0  0  0  0  0  0  0  0  0
    3.5867    0.6592    0.0388 O   0  0  0  0  0  0  0  0  0  0  0  0
    2.0817    0.7147   -0.4844 P   0  0  0  0  0  0  0  0  0  0  0  0
    1.9045    0.8886   -2.4263 S   0  0  0  0  0  0  0  0  0  0  0  0
    1.5347    1.9648    0.3071 O   0  0  0  0  0  0  0  0  0  0  0  0
    1.9478    2.3770    1.6318 C   0  0  0  0  0  0  0  0  0  0  0  0
    1.5637    1.3681    2.6933 C   0  0  0  0  0  0  0  0  0  0  0  0
    1.2071   -1.0325    0.3641 S   0  0  0  0  0  0  0  0  0  0  0  0
    0.2189   -1.6481   -1.0333 C   0  0  0  0  0  0  0  0  0  0  0  0
   -1.4877   -2.0107   -0.5616 S   0  0  0  0  0  0  0  0  0  0  0  0
   -2.0309   -0.0795    0.1427 P   0  0  0  0  0  0  0  0  0  0  0  0
   -1.3391    1.4314   -0.8971 S   0  0  0  0  0  0  0  0  0  0  0  0
   -1.6578    0.0100    1.6685 O   0  0  0  0  0  0  0  0  0  0  0  0
   -2.1233   -0.9574    2.6547 C   0  0  0  0  0  0  0  0  0  0  0  0
   -0.9815   -1.8407    3.1140 C   0  0  0  0  0  0  0  0  0  0  0  0
   -3.6155   -0.1878    0.2032 O   0  0  0  0  0  0  0  0  0  0  0  0
   -4.4129   -0.2134   -0.9981 C   0  0  0  0  0  0  0  0  0  0  0  0
   -5.8443    0.0993   -0.6118 C   0  0  0  0  0  0  0  0  0  0  0  0
    4.2449   -1.9223    0.2368 H   0  0  0  0  0  0  0  0  0  0  0  0
    3.5681   -1.7324   -1.3906 H   0  0  0  0  0  0  0  0  0  0  0  0
    5.3068   -1.9744   -1.1830 H   0  0  0  0  0  0  0  0  0  0  0  0
    4.6924    0.4144   -1.6844 H   0  0  0  0  0  0  0  0  0  0  0  0
    5.5350    0.2382   -0.1153 H   0  0  0  0  0  0  0  0  0  0  0  0
    3.0264    2.5460    1.6175 H   0  0  0  0  0  0  0  0  0  0  0  0
    1.4221    3.3238    1.7680 H   0  0  0  0  0  0  0  0  0  0  0  0
    2.1235    0.4440    2.5556 H   0  0  0  0  0  0  0  0  0  0  0  0
    1.7885    1.7796    3.6724 H   0  0  0  0  0  0  0  0  0  0  0  0
    0.4994    1.1509    2.6286 H   0  0  0  0  0  0  0  0  0  0  0  0
    0.6388   -2.5905   -1.3763 H   0  0  0  0  0  0  0  0  0  0  0  0
    0.2383   -0.8948   -1.8262 H   0  0  0  0  0  0  0  0  0  0  0  0
   -2.5134   -0.3490    3.4719 H   0  0  0  0  0  0  0  0  0  0  0  0
   -2.9313   -1.5465    2.2176 H   0  0  0  0  0  0  0  0  0  0  0  0
   -0.1716   -1.2372    3.5132 H   0  0  0  0  0  0  0  0  0  0  0  0
   -1.3473   -2.5074    3.8883 H   0  0  0  0  0  0  0  0  0  0  0  0
   -0.5960   -2.4322    2.2873 H   0  0  0  0  0  0  0  0  0  0  0  0
   -4.0129    0.5286   -1.6973 H   0  0  0  0  0  0  0  0  0  0  0  0
   -4.3258   -1.2083   -1.4430 H   0  0  0  0  0  0  0  0  0  0  0  0
   -5.9012    1.0853   -0.1592 H   0  0  0  0  0  0  0  0  0  0  0  0
   -6.4651    0.0770   -1.5014 H   0  0  0  0  0  0  0  0  0  0  0  0
   -6.2064   -0.6371    0.0994 H   0  0  0  0  0  0  0  0  0  0  0  0
  1  2  1  0  0  0  0
  2  3  1  0  0  0  0
  3  4  2  0  0  0  0
  4  5  2  0  0  0  0
  4  6  2  0  0  0  0
  6  7  1  0  0  0  0
  7  8  1  0  0  0  0
  4  9  1  0  0  0  0
  9 10  1  0  0  0  0
 10 11  1  0  0  0  0
 11 12  1  0  0  0  0
 12 13  2  0  0  0  0
 12 14  2  0  0  0  0
 14 15  1  0  0  0  0
 15 16  1  0  0  0  0
 12 17  2  0  0  0  0
 17 18  1  0  0  0  0
 18 19  1  0  0  0  0
  1 20  1  0  0  0  0
  1 21  1  0  0  0  0
  1 22  1  0  0  0  0
  2 23  1  0  0  0  0
  2 24  1  0  0  0  0
  7 25  1  0  0  0  0
  7 26  1  0  0  0  0
  8 27  1  0  0  0  0
  8 28  1  0  0  0  0
  8 29  1  0  0  0  0
 10 30  1  0  0  0  0
 10 31  1  0  0  0  0
 15 32  1  0  0  0  0
 15 33  1  0  0  0  0
 16 34  1  0  0  0  0
 16 35  1  0  0  0  0
 16 36  1  0  0  0  0
 18 37  1  0  0  0  0
 18 38  1  0  0  0  0
 19 39  1  0  0  0  0
 19 40  1  0  0  0  0
 19 41  1  0  0  0  0
M  END
