 xtb: 6.7.1 (edcfbbe)
          04092507313D

 38 37  0     0  0            999 V2000
    2.8606   -3.1960    1.2238 C   0  0  0  0  0  0  0  0  0  0  0  0
    2.9710   -1.6841    1.3195 C   0  0  0  0  0  0  0  0  0  0  0  0
    2.7295   -1.0966    0.0248 O   0  0  0  0  0  0  0  0  0  0  0  0
    1.6514   -0.3980   -0.1929 C   0  0  0  0  0  0  0  0  0  0  0  0
    0.8072   -0.1218    0.6496 O   0  0  0  0  0  0  0  0  0  0  0  0
    1.5395    0.0932   -1.6144 C   0  0  0  0  0  0  0  0  0  0  0  0
    0.3566    1.0458   -1.7024 C   0  0  0  0  0  0  0  0  0  0  0  0
    0.3593    1.5823   -2.6550 H   0  0  0  0  0  0  0  0  0  0  0  0
    0.3565    2.0643   -0.5695 C   0  0  0  0  0  0  0  0  0  0  0  0
   -0.6416    2.4593   -0.0135 O   0  0  0  0  0  0  0  0  0  0  0  0
    1.5803    2.4879   -0.3261 O   0  0  0  0  0  0  0  0  0  0  0  0
    1.7871    3.5062    0.6753 C   0  0  0  0  0  0  0  0  0  0  0  0
    2.6017    4.6369    0.0724 C   0  0  0  0  0  0  0  0  0  0  0  0
   -1.2603    0.1968   -1.7352 S   0  0  0  0  0  0  0  0  0  0  0  0
   -1.6445   -0.8174    0.0867 P   0  0  0  0  0  0  0  0  0  0  0  0
   -0.7920   -2.5381    0.5217 S   0  0  0  0  0  0  0  0  0  0  0  0
   -1.8859    0.2205    1.2575 O   0  0  0  0  0  0  0  0  0  0  0  0
   -1.2652    0.1797    2.5397 C   0  0  0  0  0  0  0  0  0  0  0  0
   -3.2046   -1.0649   -0.2091 O   0  0  0  0  0  0  0  0  0  0  0  0
   -3.6479   -2.0225   -1.1734 C   0  0  0  0  0  0  0  0  0  0  0  0
    1.8419   -3.4820    0.9687 H   0  0  0  0  0  0  0  0  0  0  0  0
    3.5358   -3.5707    0.4606 H   0  0  0  0  0  0  0  0  0  0  0  0
    3.1193   -3.6343    2.1818 H   0  0  0  0  0  0  0  0  0  0  0  0
    3.9831   -1.3773    1.5898 H   0  0  0  0  0  0  0  0  0  0  0  0
    2.2479   -1.2797    2.0326 H   0  0  0  0  0  0  0  0  0  0  0  0
    1.3987   -0.7597   -2.2806 H   0  0  0  0  0  0  0  0  0  0  0  0
    2.4670    0.5975   -1.8879 H   0  0  0  0  0  0  0  0  0  0  0  0
    0.8108    3.8509    1.0278 H   0  0  0  0  0  0  0  0  0  0  0  0
    2.3233    3.0264    1.4982 H   0  0  0  0  0  0  0  0  0  0  0  0
    3.5436    4.2545   -0.3090 H   0  0  0  0  0  0  0  0  0  0  0  0
    2.0544    5.1050   -0.7410 H   0  0  0  0  0  0  0  0  0  0  0  0
    2.8000    5.3783    0.8392 H   0  0  0  0  0  0  0  0  0  0  0  0
   -0.8110   -0.7981    2.7138 H   0  0  0  0  0  0  0  0  0  0  0  0
   -2.0514    0.3700    3.2672 H   0  0  0  0  0  0  0  0  0  0  0  0
   -0.5020    0.9555    2.5831 H   0  0  0  0  0  0  0  0  0  0  0  0
   -3.0869   -2.9530   -1.0618 H   0  0  0  0  0  0  0  0  0  0  0  0
   -3.5190   -1.6280   -2.1812 H   0  0  0  0  0  0  0  0  0  0  0  0
   -4.7007   -2.1881   -0.9585 H   0  0  0  0  0  0  0  0  0  0  0  0
  1  2  1  0  0  0  0
  2  3  1  0  0  0  0
  3  4  4  0  0  0  0
  4  5  2  0  0  0  0
  4  6  1  0  0  0  0
  6  7  1  0  0  0  0
  7  8  1  0  0  0  0
  7  9  1  0  0  0  0
  9 10  2  0  0  0  0
  9 11  1  0  0  0  0
 11 12  1  0  0  0  0
 12 13  1  0  0  0  0
  7 14  1  0  0  0  0
 14 15  1  0  0  0  0
 15 16  2  0  0  0  0
 15 17  2  0  0  0  0
 17 18  1  0  0  0  0
 15 19  1  0  0  0  0
 19 20  1  0  0  0  0
  1 21  1  0  0  0  0
  1 22  1  0  0  0  0
  1 23  1  0  0  0  0
  2 24  1  0  0  0  0
  2 25  1  0  0  0  0
  6 26  1  0  0  0  0
  6 27  1  0  0  0  0
 12 28  1  0  0  0  0
 12 29  1  0  0  0  0
 13 30  1  0  0  0  0
 13 31  1  0  0  0  0
 13 32  1  0  0  0  0
 18 33  1  0  0  0  0
 18 34  1  0  0  0  0
 18 35  1  0  0  0  0
 20 36  1  0  0  0  0
 20 37  1  0  0  0  0
 20 38  1  0  0  0  0
M  END
