 xtb: 6.7.1 (edcfbbe)
          04092505203D

 41 40  0     0  0            999 V2000
    4.5612   -1.5745   -0.5532 C   0  0  0  0  0  0  0  0  0  0  0  0
    4.5769   -0.1027   -0.1938 C   0  0  0  0  0  0  0  0  0  0  0  0
    3.3925    0.2993    0.5146 O   0  0  0  0  0  0  0  0  0  0  0  0
    1.9574    0.3528   -0.1711 P   0  0  0  0  0  0  0  0  0  0  0  0
    1.9744    0.9580   -2.0401 S   0  0  0  0  0  0  0  0  0  0  0  0
    1.1526    1.2233    0.8788 O   0  0  0  0  0  0  0  0  0  0  0  0
    1.1009    2.6602    0.8196 C   0  0  0  0  0  0  0  0  0  0  0  0
    2.4462    3.2930    1.1035 C   0  0  0  0  0  0  0  0  0  0  0  0
    1.1785   -1.5573    0.2298 S   0  0  0  0  0  0  0  0  0  0  0  0
   -0.0057   -1.7424   -1.1478 C   0  0  0  0  0  0  0  0  0  0  0  0
   -1.7029   -1.9982   -0.5865 S   0  0  0  0  0  0  0  0  0  0  0  0
   -2.0845   -0.0255    0.1056 P   0  0  0  0  0  0  0  0  0  0  0  0
   -1.5265    1.4259   -1.0816 S   0  0  0  0  0  0  0  0  0  0  0  0
   -1.4204    0.0674    1.5320 O   0  0  0  0  0  0  0  0  0  0  0  0
   -1.7622   -0.8426    2.6125 C   0  0  0  0  0  0  0  0  0  0  0  0
   -0.5814   -0.9139    3.5577 C   0  0  0  0  0  0  0  0  0  0  0  0
   -3.6310   -0.0539    0.4742 O   0  0  0  0  0  0  0  0  0  0  0  0
   -4.6726    0.2233   -0.4797 C   0  0  0  0  0  0  0  0  0  0  0  0
   -4.7527   -0.8255   -1.5696 C   0  0  0  0  0  0  0  0  0  0  0  0
    4.3547   -2.1770    0.3277 H   0  0  0  0  0  0  0  0  0  0  0  0
    3.7919   -1.7662   -1.2998 H   0  0  0  0  0  0  0  0  0  0  0  0
    5.5264   -1.8525   -0.9642 H   0  0  0  0  0  0  0  0  0  0  0  0
    4.6633    0.5104   -1.0968 H   0  0  0  0  0  0  0  0  0  0  0  0
    5.3869    0.1350    0.4972 H   0  0  0  0  0  0  0  0  0  0  0  0
    0.7296    2.9531   -0.1688 H   0  0  0  0  0  0  0  0  0  0  0  0
    0.3566    2.9226    1.5734 H   0  0  0  0  0  0  0  0  0  0  0  0
    2.8478    2.9145    2.0398 H   0  0  0  0  0  0  0  0  0  0  0  0
    3.1428    3.0604    0.2990 H   0  0  0  0  0  0  0  0  0  0  0  0
    2.3274    4.3702    1.1662 H   0  0  0  0  0  0  0  0  0  0  0  0
    0.2633   -2.6364   -1.7041 H   0  0  0  0  0  0  0  0  0  0  0  0
    0.0498   -0.8520   -1.7801 H   0  0  0  0  0  0  0  0  0  0  0  0
   -2.6513   -0.4429    3.1032 H   0  0  0  0  0  0  0  0  0  0  0  0
   -1.9932   -1.8232    2.1859 H   0  0  0  0  0  0  0  0  0  0  0  0
    0.2889   -1.3144    3.0436 H   0  0  0  0  0  0  0  0  0  0  0  0
   -0.3401    0.0780    3.9289 H   0  0  0  0  0  0  0  0  0  0  0  0
   -0.8343   -1.5605    4.3917 H   0  0  0  0  0  0  0  0  0  0  0  0
   -5.5781    0.2431    0.1283 H   0  0  0  0  0  0  0  0  0  0  0  0
   -4.4905    1.2129   -0.9099 H   0  0  0  0  0  0  0  0  0  0  0  0
   -3.8733   -0.7682   -2.2090 H   0  0  0  0  0  0  0  0  0  0  0  0
   -4.8071   -1.8205   -1.1351 H   0  0  0  0  0  0  0  0  0  0  0  0
   -5.6365   -0.6455   -2.1732 H   0  0  0  0  0  0  0  0  0  0  0  0
  1  2  1  0  0  0  0
  2  3  1  0  0  0  0
  3  4  2  0  0  0  0
  4  5  2  0  0  0  0
  4  6  2  0  0  0  0
  6  7  1  0  0  0  0
  7  8  1  0  0  0  0
  4  9  1  0  0  0  0
  9 10  1  0  0  0  0
 10 11  1  0  0  0  0
 11 12  1  0  0  0  0
 12 13  2  0  0  0  0
 12 14  2  0  0  0  0
 14 15  1  0  0  0  0
 15 16  1  0  0  0  0
 12 17  2  0  0  0  0
 17 18  1  0  0  0  0
 18 19  1  0  0  0  0
  1 20  1  0  0  0  0
  1 21  1  0  0  0  0
  1 22  1  0  0  0  0
  2 23  1  0  0  0  0
  2 24  1  0  0  0  0
  7 25  1  0  0  0  0
  7 26  1  0  0  0  0
  8 27  1  0  0  0  0
  8 28  1  0  0  0  0
  8 29  1  0  0  0  0
 10 30  1  0  0  0  0
 10 31  1  0  0  0  0
 15 32  1  0  0  0  0
 15 33  1  0  0  0  0
 16 34  1  0  0  0  0
 16 35  1  0  0  0  0
 16 36  1  0  0  0  0
 18 37  1  0  0  0  0
 18 38  1  0  0  0  0
 19 39  1  0  0  0  0
 19 40  1  0  0  0  0
 19 41  1  0  0  0  0
M  END
