 xtb: 6.7.1 (edcfbbe)
          04092505203D

 41 40  0     0  0            999 V2000
    4.3599   -0.3713   -2.0938 C   0  0  0  0  0  0  0  0  0  0  0  0
    4.4170    0.6560   -0.9820 C   0  0  0  0  0  0  0  0  0  0  0  0
    3.6148    0.2834    0.1524 O   0  0  0  0  0  0  0  0  0  0  0  0
    2.0304    0.1777    0.0921 P   0  0  0  0  0  0  0  0  0  0  0  0
    1.1255    1.5898   -0.9223 S   0  0  0  0  0  0  0  0  0  0  0  0
    1.6262    0.2104    1.6172 O   0  0  0  0  0  0  0  0  0  0  0  0
    2.1443   -0.7113    2.6124 C   0  0  0  0  0  0  0  0  0  0  0  0
    3.3114   -0.0974    3.3570 C   0  0  0  0  0  0  0  0  0  0  0  0
    1.6935   -1.8279   -0.5335 S   0  0  0  0  0  0  0  0  0  0  0  0
   -0.0633   -1.6850   -0.9273 C   0  0  0  0  0  0  0  0  0  0  0  0
   -1.0633   -1.1596    0.5010 S   0  0  0  0  0  0  0  0  0  0  0  0
   -2.2094    0.4078   -0.3775 P   0  0  0  0  0  0  0  0  0  0  0  0
   -2.0942    0.5999   -2.3211 S   0  0  0  0  0  0  0  0  0  0  0  0
   -1.8618    1.7362    0.3933 O   0  0  0  0  0  0  0  0  0  0  0  0
   -1.4736    1.8712    1.7797 C   0  0  0  0  0  0  0  0  0  0  0  0
   -2.4446    1.2059    2.7303 C   0  0  0  0  0  0  0  0  0  0  0  0
   -3.6893    0.1284    0.1445 O   0  0  0  0  0  0  0  0  0  0  0  0
   -4.6225   -0.7031   -0.5634 C   0  0  0  0  0  0  0  0  0  0  0  0
   -4.1846   -2.1530   -0.6177 C   0  0  0  0  0  0  0  0  0  0  0  0
    4.5785   -1.3631   -1.7060 H   0  0  0  0  0  0  0  0  0  0  0  0
    3.3684   -0.3793   -2.5443 H   0  0  0  0  0  0  0  0  0  0  0  0
    5.0872   -0.1130   -2.8569 H   0  0  0  0  0  0  0  0  0  0  0  0
    4.0731    1.6310   -1.3407 H   0  0  0  0  0  0  0  0  0  0  0  0
    5.4230    0.7462   -0.5695 H   0  0  0  0  0  0  0  0  0  0  0  0
    1.2971   -0.8974    3.2750 H   0  0  0  0  0  0  0  0  0  0  0  0
    2.4346   -1.6408    2.1156 H   0  0  0  0  0  0  0  0  0  0  0  0
    4.1417    0.0776    2.6784 H   0  0  0  0  0  0  0  0  0  0  0  0
    3.0161    0.8491    3.8012 H   0  0  0  0  0  0  0  0  0  0  0  0
    3.6266   -0.7786    4.1411 H   0  0  0  0  0  0  0  0  0  0  0  0
   -0.3795   -2.6802   -1.2301 H   0  0  0  0  0  0  0  0  0  0  0  0
   -0.2132   -0.9610   -1.7337 H   0  0  0  0  0  0  0  0  0  0  0  0
   -0.4643    1.4629    1.8895 H   0  0  0  0  0  0  0  0  0  0  0  0
   -1.4414    2.9528    1.9211 H   0  0  0  0  0  0  0  0  0  0  0  0
   -2.1413    1.4185    3.7508 H   0  0  0  0  0  0  0  0  0  0  0  0
   -3.4495    1.5852    2.5643 H   0  0  0  0  0  0  0  0  0  0  0  0
   -2.4449    0.1278    2.5759 H   0  0  0  0  0  0  0  0  0  0  0  0
   -5.5512   -0.5831   -0.0039 H   0  0  0  0  0  0  0  0  0  0  0  0
   -4.7423   -0.3022   -1.5749 H   0  0  0  0  0  0  0  0  0  0  0  0
   -3.3038   -2.2481   -1.2513 H   0  0  0  0  0  0  0  0  0  0  0  0
   -3.9481   -2.5169    0.3788 H   0  0  0  0  0  0  0  0  0  0  0  0
   -4.9852   -2.7513   -1.0404 H   0  0  0  0  0  0  0  0  0  0  0  0
  1  2  1  0  0  0  0
  2  3  1  0  0  0  0
  3  4  2  0  0  0  0
  4  5  2  0  0  0  0
  4  6  2  0  0  0  0
  6  7  1  0  0  0  0
  7  8  1  0  0  0  0
  4  9  1  0  0  0  0
  9 10  1  0  0  0  0
 10 11  1  0  0  0  0
 11 12  1  0  0  0  0
 12 13  2  0  0  0  0
 12 14  2  0  0  0  0
 14 15  1  0  0  0  0
 15 16  1  0  0  0  0
 12 17  2  0  0  0  0
 17 18  1  0  0  0  0
 18 19  1  0  0  0  0
  1 20  1  0  0  0  0
  1 21  1  0  0  0  0
  1 22  1  0  0  0  0
  2 23  1  0  0  0  0
  2 24  1  0  0  0  0
  7 25  1  0  0  0  0
  7 26  1  0  0  0  0
  8 27  1  0  0  0  0
  8 28  1  0  0  0  0
  8 29  1  0  0  0  0
 10 30  1  0  0  0  0
 10 31  1  0  0  0  0
 15 32  1  0  0  0  0
 15 33  1  0  0  0  0
 16 34  1  0  0  0  0
 16 35  1  0  0  0  0
 16 36  1  0  0  0  0
 18 37  1  0  0  0  0
 18 38  1  0  0  0  0
 19 39  1  0  0  0  0
 19 40  1  0  0  0  0
 19 41  1  0  0  0  0
M  END
