 xtb: 6.7.1 (edcfbbe)
          04092505203D

 41 40  0     0  0            999 V2000
    4.0562   -1.7828    1.0412 C   0  0  0  0  0  0  0  0  0  0  0  0
    4.0101   -0.3762    0.4784 C   0  0  0  0  0  0  0  0  0  0  0  0
    2.6590    0.0673    0.2650 O   0  0  0  0  0  0  0  0  0  0  0  0
    1.8249   -0.3564   -1.0244 P   0  0  0  0  0  0  0  0  0  0  0  0
    2.8714   -0.4885   -2.6741 S   0  0  0  0  0  0  0  0  0  0  0  0
    0.6599    0.7337   -1.0551 O   0  0  0  0  0  0  0  0  0  0  0  0
    0.8433    1.9802   -1.7601 C   0  0  0  0  0  0  0  0  0  0  0  0
    1.8567    2.8743   -1.0794 C   0  0  0  0  0  0  0  0  0  0  0  0
    0.7629   -2.1031   -0.5490 S   0  0  0  0  0  0  0  0  0  0  0  0
    0.2056   -1.8370    1.1860 C   0  0  0  0  0  0  0  0  0  0  0  0
   -0.0111   -0.1219    1.6958 S   0  0  0  0  0  0  0  0  0  0  0  0
   -1.8066    0.3823    0.6939 P   0  0  0  0  0  0  0  0  0  0  0  0
   -2.1115    2.2718    0.2776 S   0  0  0  0  0  0  0  0  0  0  0  0
   -2.9641   -0.2756    1.5819 O   0  0  0  0  0  0  0  0  0  0  0  0
   -3.6026    0.4312    2.6541 C   0  0  0  0  0  0  0  0  0  0  0  0
   -2.6666    0.6585    3.8246 C   0  0  0  0  0  0  0  0  0  0  0  0
   -1.7772   -0.6418   -0.5147 O   0  0  0  0  0  0  0  0  0  0  0  0
   -2.5108   -0.4088   -1.7297 C   0  0  0  0  0  0  0  0  0  0  0  0
   -4.0026   -0.5639   -1.5224 C   0  0  0  0  0  0  0  0  0  0  0  0
    3.6259   -2.4855    0.3287 H   0  0  0  0  0  0  0  0  0  0  0  0
    5.0898   -2.0587    1.2245 H   0  0  0  0  0  0  0  0  0  0  0  0
    3.5030   -1.8318    1.9753 H   0  0  0  0  0  0  0  0  0  0  0  0
    4.5487   -0.3212   -0.4739 H   0  0  0  0  0  0  0  0  0  0  0  0
    4.4205    0.3507    1.1806 H   0  0  0  0  0  0  0  0  0  0  0  0
    1.1484    1.7513   -2.7862 H   0  0  0  0  0  0  0  0  0  0  0  0
   -0.1500    2.4336   -1.7573 H   0  0  0  0  0  0  0  0  0  0  0  0
    1.8704    3.8383   -1.5780 H   0  0  0  0  0  0  0  0  0  0  0  0
    1.5883    3.0127   -0.0346 H   0  0  0  0  0  0  0  0  0  0  0  0
    2.8481    2.4279   -1.1385 H   0  0  0  0  0  0  0  0  0  0  0  0
    0.9579   -2.2495    1.8537 H   0  0  0  0  0  0  0  0  0  0  0  0
   -0.7351   -2.3758    1.2696 H   0  0  0  0  0  0  0  0  0  0  0  0
   -3.9702    1.3875    2.2674 H   0  0  0  0  0  0  0  0  0  0  0  0
   -4.4447   -0.2058    2.9281 H   0  0  0  0  0  0  0  0  0  0  0  0
   -3.2145    1.1260    4.6365 H   0  0  0  0  0  0  0  0  0  0  0  0
   -2.2483   -0.2843    4.1666 H   0  0  0  0  0  0  0  0  0  0  0  0
   -1.8502    1.3156    3.5245 H   0  0  0  0  0  0  0  0  0  0  0  0
   -2.2716    0.5950   -2.0959 H   0  0  0  0  0  0  0  0  0  0  0  0
   -2.1144   -1.1551   -2.4211 H   0  0  0  0  0  0  0  0  0  0  0  0
   -4.2207   -1.5306   -1.0767 H   0  0  0  0  0  0  0  0  0  0  0  0
   -4.3677    0.2216   -0.8621 H   0  0  0  0  0  0  0  0  0  0  0  0
   -4.5073   -0.4836   -2.4800 H   0  0  0  0  0  0  0  0  0  0  0  0
  1  2  1  0  0  0  0
  2  3  1  0  0  0  0
  3  4  2  0  0  0  0
  4  5  2  0  0  0  0
  4  6  1  0  0  0  0
  6  7  1  0  0  0  0
  7  8  1  0  0  0  0
  4  9  1  0  0  0  0
  9 10  1  0  0  0  0
 10 11  1  0  0  0  0
 11 12  1  0  0  0  0
 12 13  2  0  0  0  0
 12 14  1  0  0  0  0
 14 15  1  0  0  0  0
 15 16  1  0  0  0  0
 12 17  1  0  0  0  0
 17 18  1  0  0  0  0
 18 19  1  0  0  0  0
  1 20  1  0  0  0  0
  1 21  1  0  0  0  0
  1 22  1  0  0  0  0
  2 23  1  0  0  0  0
  2 24  1  0  0  0  0
  7 25  1  0  0  0  0
  7 26  1  0  0  0  0
  8 27  1  0  0  0  0
  8 28  1  0  0  0  0
  8 29  1  0  0  0  0
 10 30  1  0  0  0  0
 10 31  1  0  0  0  0
 15 32  1  0  0  0  0
 15 33  1  0  0  0  0
 16 34  1  0  0  0  0
 16 35  1  0  0  0  0
 16 36  1  0  0  0  0
 18 37  1  0  0  0  0
 18 38  1  0  0  0  0
 19 39  1  0  0  0  0
 19 40  1  0  0  0  0
 19 41  1  0  0  0  0
M  END
