 xtb: 6.7.1 (edcfbbe)
          04092507313D

 38 37  0     0  0            999 V2000
    3.0536   -3.5218    0.2728 C   0  0  0  0  0  0  0  0  0  0  0  0
    2.7923   -2.1273    0.8180 C   0  0  0  0  0  0  0  0  0  0  0  0
    2.6832   -1.1643   -0.2496 O   0  0  0  0  0  0  0  0  0  0  0  0
    1.5422   -1.0445   -0.8851 C   0  0  0  0  0  0  0  0  0  0  0  0
    0.5391   -1.6884   -0.6316 O   0  0  0  0  0  0  0  0  0  0  0  0
    1.5937    0.0139   -1.9633 C   0  0  0  0  0  0  0  0  0  0  0  0
    0.4624    1.0229   -1.7570 C   0  0  0  0  0  0  0  0  0  0  0  0
    0.4592    1.7450   -2.5783 H   0  0  0  0  0  0  0  0  0  0  0  0
    0.5766    1.7854   -0.4485 C   0  0  0  0  0  0  0  0  0  0  0  0
   -0.3866    2.0297    0.2499 O   0  0  0  0  0  0  0  0  0  0  0  0
    1.8103    2.1181   -0.1764 O   0  0  0  0  0  0  0  0  0  0  0  0
    2.0713    2.8389    1.0478 C   0  0  0  0  0  0  0  0  0  0  0  0
    1.8220    4.3268    0.8681 C   0  0  0  0  0  0  0  0  0  0  0  0
   -1.1996    0.2592   -1.8233 S   0  0  0  0  0  0  0  0  0  0  0  0
   -1.5954   -0.3087    0.1740 P   0  0  0  0  0  0  0  0  0  0  0  0
   -0.4909   -0.4225    1.8084 S   0  0  0  0  0  0  0  0  0  0  0  0
   -2.8475    0.6719    0.3340 O   0  0  0  0  0  0  0  0  0  0  0  0
   -3.6132    0.7313    1.5395 C   0  0  0  0  0  0  0  0  0  0  0  0
   -2.4090   -1.6771   -0.0429 O   0  0  0  0  0  0  0  0  0  0  0  0
   -1.9004   -2.9937    0.1562 C   0  0  0  0  0  0  0  0  0  0  0  0
    3.9439   -3.5186   -0.3499 H   0  0  0  0  0  0  0  0  0  0  0  0
    3.1972   -4.2064    1.1020 H   0  0  0  0  0  0  0  0  0  0  0  0
    2.2056   -3.8592   -0.3187 H   0  0  0  0  0  0  0  0  0  0  0  0
    3.6304   -1.7687    1.4149 H   0  0  0  0  0  0  0  0  0  0  0  0
    1.8726   -2.0983    1.4101 H   0  0  0  0  0  0  0  0  0  0  0  0
    1.4509   -0.4709   -2.9298 H   0  0  0  0  0  0  0  0  0  0  0  0
    2.5589    0.5174   -1.9277 H   0  0  0  0  0  0  0  0  0  0  0  0
    1.4358    2.4242    1.8360 H   0  0  0  0  0  0  0  0  0  0  0  0
    3.1201    2.6299    1.2571 H   0  0  0  0  0  0  0  0  0  0  0  0
    2.4204    4.7102    0.0464 H   0  0  0  0  0  0  0  0  0  0  0  0
    0.7700    4.5086    0.6594 H   0  0  0  0  0  0  0  0  0  0  0  0
    2.0925    4.8451    1.7819 H   0  0  0  0  0  0  0  0  0  0  0  0
   -2.9492    0.7784    2.4054 H   0  0  0  0  0  0  0  0  0  0  0  0
   -4.2567   -0.1454    1.6148 H   0  0  0  0  0  0  0  0  0  0  0  0
   -4.2047    1.6402    1.4660 H   0  0  0  0  0  0  0  0  0  0  0  0
   -1.3740   -3.3237   -0.7372 H   0  0  0  0  0  0  0  0  0  0  0  0
   -2.7684   -3.6190    0.3518 H   0  0  0  0  0  0  0  0  0  0  0  0
   -1.2177   -3.0050    1.0074 H   0  0  0  0  0  0  0  0  0  0  0  0
  1  2  1  0  0  0  0
  2  3  1  0  0  0  0
  3  4  4  0  0  0  0
  4  5  2  0  0  0  0
  4  6  1  0  0  0  0
  6  7  1  0  0  0  0
  7  8  1  0  0  0  0
  7  9  1  0  0  0  0
  9 10  2  0  0  0  0
  9 11  4  0  0  0  0
 11 12  1  0  0  0  0
 12 13  1  0  0  0  0
  7 14  1  0  0  0  0
 14 15  1  0  0  0  0
 15 16  2  0  0  0  0
 15 17  1  0  0  0  0
 17 18  1  0  0  0  0
 15 19  1  0  0  0  0
 19 20  1  0  0  0  0
  1 21  1  0  0  0  0
  1 22  1  0  0  0  0
  1 23  1  0  0  0  0
  2 24  1  0  0  0  0
  2 25  1  0  0  0  0
  6 26  1  0  0  0  0
  6 27  1  0  0  0  0
 12 28  1  0  0  0  0
 12 29  1  0  0  0  0
 13 30  1  0  0  0  0
 13 31  1  0  0  0  0
 13 32  1  0  0  0  0
 18 33  1  0  0  0  0
 18 34  1  0  0  0  0
 18 35  1  0  0  0  0
 20 36  1  0  0  0  0
 20 37  1  0  0  0  0
 20 38  1  0  0  0  0
M  END
