 xtb: 6.7.1 (edcfbbe)
          04092505213D

 41 40  0     0  0            999 V2000
    1.7639   -3.8050    0.1768 C   0  0  0  0  0  0  0  0  0  0  0  0
    1.3103   -2.3838    0.4458 C   0  0  0  0  0  0  0  0  0  0  0  0
    2.4087   -1.5034    0.1614 O   0  0  0  0  0  0  0  0  0  0  0  0
    2.2699   -0.0367   -0.4438 P   0  0  0  0  0  0  0  0  0  0  0  0
    0.9268    0.1310   -1.8599 S   0  0  0  0  0  0  0  0  0  0  0  0
    3.7170    0.2443   -0.9815 O   0  0  0  0  0  0  0  0  0  0  0  0
    4.8767    0.6063   -0.1896 C   0  0  0  0  0  0  0  0  0  0  0  0
    5.1959   -0.4153    0.8793 C   0  0  0  0  0  0  0  0  0  0  0  0
    2.0521    1.2921    1.2107 S   0  0  0  0  0  0  0  0  0  0  0  0
    0.2883    1.6311    1.0972 C   0  0  0  0  0  0  0  0  0  0  0  0
   -0.7321    0.1953    1.5926 S   0  0  0  0  0  0  0  0  0  0  0  0
   -2.1753    0.2014    0.0508 P   0  0  0  0  0  0  0  0  0  0  0  0
   -2.2928    1.8176   -1.0606 S   0  0  0  0  0  0  0  0  0  0  0  0
   -3.4970   -0.2515    0.8112 O   0  0  0  0  0  0  0  0  0  0  0  0
   -4.0490    0.3578    1.9918 C   0  0  0  0  0  0  0  0  0  0  0  0
   -4.2660    1.8498    1.8450 C   0  0  0  0  0  0  0  0  0  0  0  0
   -1.8529   -1.1436   -0.7243 O   0  0  0  0  0  0  0  0  0  0  0  0
   -2.2301   -1.3473   -2.0974 C   0  0  0  0  0  0  0  0  0  0  0  0
   -3.7308   -1.4777   -2.2431 C   0  0  0  0  0  0  0  0  0  0  0  0
    2.0417   -3.9161   -0.8680 H   0  0  0  0  0  0  0  0  0  0  0  0
    2.6221   -4.0440    0.7979 H   0  0  0  0  0  0  0  0  0  0  0  0
    0.9514   -4.4865    0.4066 H   0  0  0  0  0  0  0  0  0  0  0  0
    1.0310   -2.2457    1.4942 H   0  0  0  0  0  0  0  0  0  0  0  0
    0.4585   -2.1142   -0.1885 H   0  0  0  0  0  0  0  0  0  0  0  0
    5.6705    0.6746   -0.9350 H   0  0  0  0  0  0  0  0  0  0  0  0
    4.6939    1.5893    0.2514 H   0  0  0  0  0  0  0  0  0  0  0  0
    5.3045   -1.4017    0.4367 H   0  0  0  0  0  0  0  0  0  0  0  0
    6.1236   -0.1358    1.3691 H   0  0  0  0  0  0  0  0  0  0  0  0
    4.3998   -0.4444    1.6202 H   0  0  0  0  0  0  0  0  0  0  0  0
    0.0186    1.9097    0.0748 H   0  0  0  0  0  0  0  0  0  0  0  0
    0.0989    2.4459    1.7915 H   0  0  0  0  0  0  0  0  0  0  0  0
   -4.9943   -0.1697    2.1315 H   0  0  0  0  0  0  0  0  0  0  0  0
   -3.3790    0.1443    2.8295 H   0  0  0  0  0  0  0  0  0  0  0  0
   -4.7610    2.2300    2.7328 H   0  0  0  0  0  0  0  0  0  0  0  0
   -3.3119    2.3604    1.7230 H   0  0  0  0  0  0  0  0  0  0  0  0
   -4.8789    2.0612    0.9721 H   0  0  0  0  0  0  0  0  0  0  0  0
   -1.8438   -0.5123   -2.6923 H   0  0  0  0  0  0  0  0  0  0  0  0
   -1.7085   -2.2619   -2.3827 H   0  0  0  0  0  0  0  0  0  0  0  0
   -4.1003   -2.2755   -1.6045 H   0  0  0  0  0  0  0  0  0  0  0  0
   -4.2080   -0.5428   -1.9505 H   0  0  0  0  0  0  0  0  0  0  0  0
   -3.9761   -1.6931   -3.2781 H   0  0  0  0  0  0  0  0  0  0  0  0
  1  2  1  0  0  0  0
  2  3  1  0  0  0  0
  3  4  2  0  0  0  0
  4  5  2  0  0  0  0
  4  6  2  0  0  0  0
  6  7  1  0  0  0  0
  7  8  1  0  0  0  0
  4  9  1  0  0  0  0
  9 10  1  0  0  0  0
 10 11  1  0  0  0  0
 11 12  1  0  0  0  0
 12 13  2  0  0  0  0
 12 14  2  0  0  0  0
 14 15  1  0  0  0  0
 15 16  1  0  0  0  0
 12 17  2  0  0  0  0
 17 18  1  0  0  0  0
 18 19  1  0  0  0  0
  1 20  1  0  0  0  0
  1 21  1  0  0  0  0
  1 22  1  0  0  0  0
  2 23  1  0  0  0  0
  2 24  1  0  0  0  0
  7 25  1  0  0  0  0
  7 26  1  0  0  0  0
  8 27  1  0  0  0  0
  8 28  1  0  0  0  0
  8 29  1  0  0  0  0
 10 30  1  0  0  0  0
 10 31  1  0  0  0  0
 15 32  1  0  0  0  0
 15 33  1  0  0  0  0
 16 34  1  0  0  0  0
 16 35  1  0  0  0  0
 16 36  1  0  0  0  0
 18 37  1  0  0  0  0
 18 38  1  0  0  0  0
 19 39  1  0  0  0  0
 19 40  1  0  0  0  0
 19 41  1  0  0  0  0
M  END
