 xtb: 6.7.1 (edcfbbe)
          04092505213D

 41 40  0     0  0            999 V2000
    4.0416    0.3175   -2.5514 C   0  0  0  0  0  0  0  0  0  0  0  0
    2.6445   -0.2651   -2.5645 C   0  0  0  0  0  0  0  0  0  0  0  0
    2.3421   -0.9109   -1.3118 O   0  0  0  0  0  0  0  0  0  0  0  0
    2.0230   -0.0990    0.0093 P   0  0  0  0  0  0  0  0  0  0  0  0
    1.2754    1.6911   -0.3196 S   0  0  0  0  0  0  0  0  0  0  0  0
    3.4363   -0.0735    0.7398 O   0  0  0  0  0  0  0  0  0  0  0  0
    3.6440    0.0394    2.1576 C   0  0  0  0  0  0  0  0  0  0  0  0
    2.8456    1.1623    2.7881 C   0  0  0  0  0  0  0  0  0  0  0  0
    1.0102   -1.5977    1.1109 S   0  0  0  0  0  0  0  0  0  0  0  0
   -0.2694   -2.1121   -0.0874 C   0  0  0  0  0  0  0  0  0  0  0  0
   -0.9576   -0.7872   -1.1043 S   0  0  0  0  0  0  0  0  0  0  0  0
   -2.1360    0.1804    0.3952 P   0  0  0  0  0  0  0  0  0  0  0  0
   -1.2923    0.7252    2.0720 S   0  0  0  0  0  0  0  0  0  0  0  0
   -3.3105   -0.8278    0.6863 O   0  0  0  0  0  0  0  0  0  0  0  0
   -4.2705   -1.2824   -0.3054 C   0  0  0  0  0  0  0  0  0  0  0  0
   -3.9984   -2.7226   -0.6929 C   0  0  0  0  0  0  0  0  0  0  0  0
   -2.8749    1.3282   -0.4142 O   0  0  0  0  0  0  0  0  0  0  0  0
   -2.2612    2.5703   -0.8084 C   0  0  0  0  0  0  0  0  0  0  0  0
   -1.7990    2.5067   -2.2501 C   0  0  0  0  0  0  0  0  0  0  0  0
    4.1035    1.0942   -1.7897 H   0  0  0  0  0  0  0  0  0  0  0  0
    4.7697   -0.4554   -2.3211 H   0  0  0  0  0  0  0  0  0  0  0  0
    4.2636    0.7512   -3.5212 H   0  0  0  0  0  0  0  0  0  0  0  0
    2.5367   -1.0583   -3.3049 H   0  0  0  0  0  0  0  0  0  0  0  0
    1.9002    0.5178   -2.7430 H   0  0  0  0  0  0  0  0  0  0  0  0
    3.3853   -0.9198    2.6158 H   0  0  0  0  0  0  0  0  0  0  0  0
    4.7176    0.2157    2.2478 H   0  0  0  0  0  0  0  0  0  0  0  0
    1.7755    0.9657    2.7010 H   0  0  0  0  0  0  0  0  0  0  0  0
    3.0986    1.2397    3.8406 H   0  0  0  0  0  0  0  0  0  0  0  0
    3.0620    2.1077    2.2952 H   0  0  0  0  0  0  0  0  0  0  0  0
   -1.0571   -2.5717    0.5084 H   0  0  0  0  0  0  0  0  0  0  0  0
    0.1727   -2.8254   -0.7793 H   0  0  0  0  0  0  0  0  0  0  0  0
   -5.2375   -1.1822    0.1898 H   0  0  0  0  0  0  0  0  0  0  0  0
   -4.2316   -0.6198   -1.1710 H   0  0  0  0  0  0  0  0  0  0  0  0
   -4.8128   -3.0758   -1.3176 H   0  0  0  0  0  0  0  0  0  0  0  0
   -3.0679   -2.8039   -1.2490 H   0  0  0  0  0  0  0  0  0  0  0  0
   -3.9401   -3.3433    0.1973 H   0  0  0  0  0  0  0  0  0  0  0  0
   -3.0444    3.3184   -0.6737 H   0  0  0  0  0  0  0  0  0  0  0  0
   -1.4258    2.7914   -0.1369 H   0  0  0  0  0  0  0  0  0  0  0  0
   -2.6254    2.2306   -2.8987 H   0  0  0  0  0  0  0  0  0  0  0  0
   -1.4176    3.4801   -2.5399 H   0  0  0  0  0  0  0  0  0  0  0  0
   -1.0004    1.7758   -2.3575 H   0  0  0  0  0  0  0  0  0  0  0  0
  1  2  1  0  0  0  0
  2  3  1  0  0  0  0
  3  4  2  0  0  0  0
  4  5  2  0  0  0  0
  4  6  2  0  0  0  0
  6  7  1  0  0  0  0
  7  8  1  0  0  0  0
  4  9  1  0  0  0  0
  9 10  1  0  0  0  0
 10 11  1  0  0  0  0
 11 12  1  0  0  0  0
 12 13  2  0  0  0  0
 12 14  2  0  0  0  0
 14 15  1  0  0  0  0
 15 16  1  0  0  0  0
 12 17  2  0  0  0  0
 17 18  1  0  0  0  0
 18 19  1  0  0  0  0
  1 20  1  0  0  0  0
  1 21  1  0  0  0  0
  1 22  1  0  0  0  0
  2 23  1  0  0  0  0
  2 24  1  0  0  0  0
  7 25  1  0  0  0  0
  7 26  1  0  0  0  0
  8 27  1  0  0  0  0
  8 28  1  0  0  0  0
  8 29  1  0  0  0  0
 10 30  1  0  0  0  0
 10 31  1  0  0  0  0
 15 32  1  0  0  0  0
 15 33  1  0  0  0  0
 16 34  1  0  0  0  0
 16 35  1  0  0  0  0
 16 36  1  0  0  0  0
 18 37  1  0  0  0  0
 18 38  1  0  0  0  0
 19 39  1  0  0  0  0
 19 40  1  0  0  0  0
 19 41  1  0  0  0  0
M  END
