 xtb: 6.7.1 (edcfbbe)
          04092505203D

 41 40  0     0  0            999 V2000
    2.9618    1.5517    2.9647 C   0  0  0  0  0  0  0  0  0  0  0  0
    1.6358    0.9248    2.5898 C   0  0  0  0  0  0  0  0  0  0  0  0
    1.4750    0.8676    1.1573 O   0  0  0  0  0  0  0  0  0  0  0  0
    2.3026   -0.1497    0.2651 P   0  0  0  0  0  0  0  0  0  0  0  0
    2.8087   -1.8027    1.1984 S   0  0  0  0  0  0  0  0  0  0  0  0
    3.4679    0.7965   -0.2522 O   0  0  0  0  0  0  0  0  0  0  0  0
    4.2679    0.5826   -1.4290 C   0  0  0  0  0  0  0  0  0  0  0  0
    4.8643   -0.8081   -1.4949 C   0  0  0  0  0  0  0  0  0  0  0  0
    1.0518   -0.3691   -1.4306 S   0  0  0  0  0  0  0  0  0  0  0  0
    0.0597   -1.7280   -0.7616 C   0  0  0  0  0  0  0  0  0  0  0  0
   -1.0457   -1.2007    0.5681 S   0  0  0  0  0  0  0  0  0  0  0  0
   -2.2547    0.0888   -0.6383 P   0  0  0  0  0  0  0  0  0  0  0  0
   -2.5401   -0.5148   -2.4739 S   0  0  0  0  0  0  0  0  0  0  0  0
   -1.6076    1.5209   -0.5652 O   0  0  0  0  0  0  0  0  0  0  0  0
   -1.4319    2.2495    0.6754 C   0  0  0  0  0  0  0  0  0  0  0  0
   -2.5337    3.2737    0.8479 C   0  0  0  0  0  0  0  0  0  0  0  0
   -3.5599    0.2488    0.2515 O   0  0  0  0  0  0  0  0  0  0  0  0
   -4.5005   -0.8372    0.3916 C   0  0  0  0  0  0  0  0  0  0  0  0
   -5.7823   -0.2693    0.9659 C   0  0  0  0  0  0  0  0  0  0  0  0
    3.0535    2.5367    2.5151 H   0  0  0  0  0  0  0  0  0  0  0  0
    3.0309    1.6359    4.0446 H   0  0  0  0  0  0  0  0  0  0  0  0
    3.7763    0.9249    2.6031 H   0  0  0  0  0  0  0  0  0  0  0  0
    0.7910    1.5238    2.9313 H   0  0  0  0  0  0  0  0  0  0  0  0
    1.5580   -0.0911    2.9908 H   0  0  0  0  0  0  0  0  0  0  0  0
    3.6416    0.7765   -2.3046 H   0  0  0  0  0  0  0  0  0  0  0  0
    5.0441    1.3464   -1.3533 H   0  0  0  0  0  0  0  0  0  0  0  0
    5.4258   -1.0249   -0.5891 H   0  0  0  0  0  0  0  0  0  0  0  0
    4.0744   -1.5513   -1.5981 H   0  0  0  0  0  0  0  0  0  0  0  0
    5.5258   -0.8759   -2.3526 H   0  0  0  0  0  0  0  0  0  0  0  0
    0.7171   -2.4895   -0.3407 H   0  0  0  0  0  0  0  0  0  0  0  0
   -0.5318   -2.1174   -1.5900 H   0  0  0  0  0  0  0  0  0  0  0  0
   -1.4188    1.5357    1.5040 H   0  0  0  0  0  0  0  0  0  0  0  0
   -0.4517    2.7211    0.5800 H   0  0  0  0  0  0  0  0  0  0  0  0
   -2.3464    3.8501    1.7485 H   0  0  0  0  0  0  0  0  0  0  0  0
   -2.5565    3.9418   -0.0086 H   0  0  0  0  0  0  0  0  0  0  0  0
   -3.4968    2.7771    0.9311 H   0  0  0  0  0  0  0  0  0  0  0  0
   -4.6639   -1.2839   -0.5945 H   0  0  0  0  0  0  0  0  0  0  0  0
   -4.0601   -1.5859    1.0556 H   0  0  0  0  0  0  0  0  0  0  0  0
   -6.5022   -1.0717    1.0881 H   0  0  0  0  0  0  0  0  0  0  0  0
   -5.5876    0.1884    1.9314 H   0  0  0  0  0  0  0  0  0  0  0  0
   -6.1926    0.4799    0.2946 H   0  0  0  0  0  0  0  0  0  0  0  0
  1  2  1  0  0  0  0
  2  3  1  0  0  0  0
  3  4  2  0  0  0  0
  4  5  2  0  0  0  0
  4  6  2  0  0  0  0
  6  7  1  0  0  0  0
  7  8  1  0  0  0  0
  4  9  1  0  0  0  0
  9 10  1  0  0  0  0
 10 11  1  0  0  0  0
 11 12  1  0  0  0  0
 12 13  2  0  0  0  0
 12 14  2  0  0  0  0
 14 15  1  0  0  0  0
 15 16  1  0  0  0  0
 12 17  2  0  0  0  0
 17 18  1  0  0  0  0
 18 19  1  0  0  0  0
  1 20  1  0  0  0  0
  1 21  1  0  0  0  0
  1 22  1  0  0  0  0
  2 23  1  0  0  0  0
  2 24  1  0  0  0  0
  7 25  1  0  0  0  0
  7 26  1  0  0  0  0
  8 27  1  0  0  0  0
  8 28  1  0  0  0  0
  8 29  1  0  0  0  0
 10 30  1  0  0  0  0
 10 31  1  0  0  0  0
 15 32  1  0  0  0  0
 15 33  1  0  0  0  0
 16 34  1  0  0  0  0
 16 35  1  0  0  0  0
 16 36  1  0  0  0  0
 18 37  1  0  0  0  0
 18 38  1  0  0  0  0
 19 39  1  0  0  0  0
 19 40  1  0  0  0  0
 19 41  1  0  0  0  0
M  END
