 xtb: 6.7.1 (edcfbbe)
          04092505203D

 41 40  0     0  0            999 V2000
    4.3124   -2.4834    0.0890 C   0  0  0  0  0  0  0  0  0  0  0  0
    4.7357   -1.0292    0.1340 C   0  0  0  0  0  0  0  0  0  0  0  0
    3.6826   -0.1728    0.6087 O   0  0  0  0  0  0  0  0  0  0  0  0
    2.3585    0.0955   -0.2285 P   0  0  0  0  0  0  0  0  0  0  0  0
    2.6161    0.2801   -2.1678 S   0  0  0  0  0  0  0  0  0  0  0  0
    1.7559    1.3532    0.5246 O   0  0  0  0  0  0  0  0  0  0  0  0
    1.9986    2.7039    0.0870 C   0  0  0  0  0  0  0  0  0  0  0  0
    3.4430    3.1087    0.2930 C   0  0  0  0  0  0  0  0  0  0  0  0
    1.0063   -1.3849    0.4260 S   0  0  0  0  0  0  0  0  0  0  0  0
   -0.1914   -1.1619   -0.9161 C   0  0  0  0  0  0  0  0  0  0  0  0
   -1.0316    0.4512   -0.8917 S   0  0  0  0  0  0  0  0  0  0  0  0
   -2.6720   -0.1134    0.3459 P   0  0  0  0  0  0  0  0  0  0  0  0
   -3.9888    1.2792    0.7406 S   0  0  0  0  0  0  0  0  0  0  0  0
   -1.9985   -0.8381    1.5870 O   0  0  0  0  0  0  0  0  0  0  0  0
   -1.8245   -0.1749    2.8516 C   0  0  0  0  0  0  0  0  0  0  0  0
   -0.8328    0.9685    2.7728 C   0  0  0  0  0  0  0  0  0  0  0  0
   -3.2391   -1.4306   -0.3423 O   0  0  0  0  0  0  0  0  0  0  0  0
   -4.3147   -1.3768   -1.2961 C   0  0  0  0  0  0  0  0  0  0  0  0
   -3.8836   -0.7625   -2.6134 C   0  0  0  0  0  0  0  0  0  0  0  0
    5.1712   -3.1002   -0.1556 H   0  0  0  0  0  0  0  0  0  0  0  0
    3.9089   -2.7895    1.0509 H   0  0  0  0  0  0  0  0  0  0  0  0
    3.5475   -2.6252   -0.6733 H   0  0  0  0  0  0  0  0  0  0  0  0
    5.0379   -0.6867   -0.8610 H   0  0  0  0  0  0  0  0  0  0  0  0
    5.5465   -0.8666    0.8454 H   0  0  0  0  0  0  0  0  0  0  0  0
    1.7172    2.7814   -0.9683 H   0  0  0  0  0  0  0  0  0  0  0  0
    1.3173    3.3030    0.6928 H   0  0  0  0  0  0  0  0  0  0  0  0
    3.7349    2.9441    1.3269 H   0  0  0  0  0  0  0  0  0  0  0  0
    4.0888    2.5164   -0.3544 H   0  0  0  0  0  0  0  0  0  0  0  0
    3.5622    4.1586    0.0446 H   0  0  0  0  0  0  0  0  0  0  0  0
   -0.9261   -1.9570   -0.8170 H   0  0  0  0  0  0  0  0  0  0  0  0
    0.3337   -1.2141   -1.8697 H   0  0  0  0  0  0  0  0  0  0  0  0
   -2.7998    0.1922    3.1864 H   0  0  0  0  0  0  0  0  0  0  0  0
   -1.4747   -0.9670    3.5148 H   0  0  0  0  0  0  0  0  0  0  0  0
   -0.7138    1.4089    3.7576 H   0  0  0  0  0  0  0  0  0  0  0  0
    0.1339    0.6188    2.4184 H   0  0  0  0  0  0  0  0  0  0  0  0
   -1.2041    1.7313    2.0875 H   0  0  0  0  0  0  0  0  0  0  0  0
   -4.6120   -2.4197   -1.4150 H   0  0  0  0  0  0  0  0  0  0  0  0
   -5.1381   -0.8035   -0.8584 H   0  0  0  0  0  0  0  0  0  0  0  0
   -3.0260   -1.2915   -3.0216 H   0  0  0  0  0  0  0  0  0  0  0  0
   -4.7064   -0.8173   -3.3191 H   0  0  0  0  0  0  0  0  0  0  0  0
   -3.6150    0.2834   -2.4666 H   0  0  0  0  0  0  0  0  0  0  0  0
  1  2  1  0  0  0  0
  2  3  1  0  0  0  0
  3  4  2  0  0  0  0
  4  5  2  0  0  0  0
  4  6  2  0  0  0  0
  6  7  1  0  0  0  0
  7  8  1  0  0  0  0
  4  9  1  0  0  0  0
  9 10  1  0  0  0  0
 10 11  1  0  0  0  0
 11 12  1  0  0  0  0
 12 13  2  0  0  0  0
 12 14  2  0  0  0  0
 14 15  1  0  0  0  0
 15 16  1  0  0  0  0
 12 17  2  0  0  0  0
 17 18  1  0  0  0  0
 18 19  1  0  0  0  0
  1 20  1  0  0  0  0
  1 21  1  0  0  0  0
  1 22  1  0  0  0  0
  2 23  1  0  0  0  0
  2 24  1  0  0  0  0
  7 25  1  0  0  0  0
  7 26  1  0  0  0  0
  8 27  1  0  0  0  0
  8 28  1  0  0  0  0
  8 29  1  0  0  0  0
 10 30  1  0  0  0  0
 10 31  1  0  0  0  0
 15 32  1  0  0  0  0
 15 33  1  0  0  0  0
 16 34  1  0  0  0  0
 16 35  1  0  0  0  0
 16 36  1  0  0  0  0
 18 37  1  0  0  0  0
 18 38  1  0  0  0  0
 19 39  1  0  0  0  0
 19 40  1  0  0  0  0
 19 41  1  0  0  0  0
M  END
