 xtb: 6.7.1 (edcfbbe)
          04092505203D

 41 40  0     0  0            999 V2000
    5.1643   -1.3967   -2.0162 C   0  0  0  0  0  0  0  0  0  0  0  0
    3.6811   -1.3634   -1.7083 C   0  0  0  0  0  0  0  0  0  0  0  0
    3.4303   -0.2240   -0.8631 O   0  0  0  0  0  0  0  0  0  0  0  0
    1.9410    0.2558   -0.5489 P   0  0  0  0  0  0  0  0  0  0  0  0
    0.8786    0.6337   -2.1497 S   0  0  0  0  0  0  0  0  0  0  0  0
    2.2189    1.5404    0.3078 O   0  0  0  0  0  0  0  0  0  0  0  0
    3.2454    1.6849    1.3206 C   0  0  0  0  0  0  0  0  0  0  0  0
    3.0290    0.7562    2.4957 C   0  0  0  0  0  0  0  0  0  0  0  0
    1.1920   -1.3328    0.6638 S   0  0  0  0  0  0  0  0  0  0  0  0
   -0.2321   -1.8768   -0.3262 C   0  0  0  0  0  0  0  0  0  0  0  0
   -1.8295   -1.6905    0.5093 S   0  0  0  0  0  0  0  0  0  0  0  0
   -2.0743    0.4163    0.4048 P   0  0  0  0  0  0  0  0  0  0  0  0
   -0.7378    1.5458    1.2811 S   0  0  0  0  0  0  0  0  0  0  0  0
   -3.5560    0.6017    0.9549 O   0  0  0  0  0  0  0  0  0  0  0  0
   -3.8485    0.7794    2.3527 C   0  0  0  0  0  0  0  0  0  0  0  0
   -3.5176   -0.4521    3.1700 C   0  0  0  0  0  0  0  0  0  0  0  0
   -2.2324    0.7848   -1.1189 O   0  0  0  0  0  0  0  0  0  0  0  0
   -3.2850    0.2933   -1.9898 C   0  0  0  0  0  0  0  0  0  0  0  0
   -2.7821   -0.8401   -2.8622 C   0  0  0  0  0  0  0  0  0  0  0  0
    5.4592   -0.4851   -2.5284 H   0  0  0  0  0  0  0  0  0  0  0  0
    5.7340   -1.4841   -1.0957 H   0  0  0  0  0  0  0  0  0  0  0  0
    5.3756   -2.2495   -2.6526 H   0  0  0  0  0  0  0  0  0  0  0  0
    3.3643   -2.2630   -1.1724 H   0  0  0  0  0  0  0  0  0  0  0  0
    3.0829   -1.2571   -2.6194 H   0  0  0  0  0  0  0  0  0  0  0  0
    4.2150    1.5135    0.8493 H   0  0  0  0  0  0  0  0  0  0  0  0
    3.1485    2.7310    1.6153 H   0  0  0  0  0  0  0  0  0  0  0  0
    3.1781   -0.2804    2.1967 H   0  0  0  0  0  0  0  0  0  0  0  0
    3.7365    1.0042    3.2805 H   0  0  0  0  0  0  0  0  0  0  0  0
    2.0158    0.8707    2.8756 H   0  0  0  0  0  0  0  0  0  0  0  0
   -0.1224   -2.9431   -0.5047 H   0  0  0  0  0  0  0  0  0  0  0  0
   -0.2331   -1.3082   -1.2612 H   0  0  0  0  0  0  0  0  0  0  0  0
   -3.2842    1.6447    2.7140 H   0  0  0  0  0  0  0  0  0  0  0  0
   -4.9169    0.9998    2.3658 H   0  0  0  0  0  0  0  0  0  0  0  0
   -3.8721   -0.3123    4.1861 H   0  0  0  0  0  0  0  0  0  0  0  0
   -3.9886   -1.3320    2.7390 H   0  0  0  0  0  0  0  0  0  0  0  0
   -2.4394   -0.6046    3.1912 H   0  0  0  0  0  0  0  0  0  0  0  0
   -4.1374   -0.0104   -1.3798 H   0  0  0  0  0  0  0  0  0  0  0  0
   -3.5510    1.1632   -2.5923 H   0  0  0  0  0  0  0  0  0  0  0  0
   -2.6325   -1.7446   -2.2781 H   0  0  0  0  0  0  0  0  0  0  0  0
   -3.5151   -1.0385   -3.6376 H   0  0  0  0  0  0  0  0  0  0  0  0
   -1.8408   -0.5534   -3.3271 H   0  0  0  0  0  0  0  0  0  0  0  0
  1  2  1  0  0  0  0
  2  3  1  0  0  0  0
  3  4  2  0  0  0  0
  4  5  2  0  0  0  0
  4  6  2  0  0  0  0
  6  7  1  0  0  0  0
  7  8  1  0  0  0  0
  4  9  1  0  0  0  0
  9 10  1  0  0  0  0
 10 11  1  0  0  0  0
 11 12  1  0  0  0  0
 12 13  2  0  0  0  0
 12 14  2  0  0  0  0
 14 15  1  0  0  0  0
 15 16  1  0  0  0  0
 12 17  2  0  0  0  0
 17 18  1  0  0  0  0
 18 19  1  0  0  0  0
  1 20  1  0  0  0  0
  1 21  1  0  0  0  0
  1 22  1  0  0  0  0
  2 23  1  0  0  0  0
  2 24  1  0  0  0  0
  7 25  1  0  0  0  0
  7 26  1  0  0  0  0
  8 27  1  0  0  0  0
  8 28  1  0  0  0  0
  8 29  1  0  0  0  0
 10 30  1  0  0  0  0
 10 31  1  0  0  0  0
 15 32  1  0  0  0  0
 15 33  1  0  0  0  0
 16 34  1  0  0  0  0
 16 35  1  0  0  0  0
 16 36  1  0  0  0  0
 18 37  1  0  0  0  0
 18 38  1  0  0  0  0
 19 39  1  0  0  0  0
 19 40  1  0  0  0  0
 19 41  1  0  0  0  0
M  END
