 xtb: 6.7.1 (edcfbbe)
          04092505213D

 41 40  0     0  0            999 V2000
    2.8449   -2.7035   -2.4659 C   0  0  0  0  0  0  0  0  0  0  0  0
    3.1588   -2.5730   -0.9891 C   0  0  0  0  0  0  0  0  0  0  0  0
    3.5052   -1.2075   -0.6485 O   0  0  0  0  0  0  0  0  0  0  0  0
    2.4754   -0.1543   -0.0623 P   0  0  0  0  0  0  0  0  0  0  0  0
    3.4052    1.4876    0.4432 S   0  0  0  0  0  0  0  0  0  0  0  0
    1.6823   -0.9143    1.1049 O   0  0  0  0  0  0  0  0  0  0  0  0
    2.1758   -0.9264    2.4639 C   0  0  0  0  0  0  0  0  0  0  0  0
    1.4757    0.1257    3.2998 C   0  0  0  0  0  0  0  0  0  0  0  0
    0.9273    0.0189   -1.4877 S   0  0  0  0  0  0  0  0  0  0  0  0
    0.2057    1.5328   -0.8023 C   0  0  0  0  0  0  0  0  0  0  0  0
   -0.7445    1.2505    0.7064 S   0  0  0  0  0  0  0  0  0  0  0  0
   -2.4348    0.3865   -0.2687 P   0  0  0  0  0  0  0  0  0  0  0  0
   -3.0568    1.3185   -1.8704 S   0  0  0  0  0  0  0  0  0  0  0  0
   -3.4915    0.2018    0.9057 O   0  0  0  0  0  0  0  0  0  0  0  0
   -4.4335    1.2260    1.2749 C   0  0  0  0  0  0  0  0  0  0  0  0
   -3.7548    2.4632    1.8255 C   0  0  0  0  0  0  0  0  0  0  0  0
   -2.0308   -1.1007   -0.5903 O   0  0  0  0  0  0  0  0  0  0  0  0
   -1.5521   -2.0489    0.3972 C   0  0  0  0  0  0  0  0  0  0  0  0
   -1.0053   -3.2428   -0.3573 C   0  0  0  0  0  0  0  0  0  0  0  0
    3.6803   -2.3399   -3.0577 H   0  0  0  0  0  0  0  0  0  0  0  0
    2.6679   -3.7487   -2.7000 H   0  0  0  0  0  0  0  0  0  0  0  0
    1.9599   -2.1250   -2.7248 H   0  0  0  0  0  0  0  0  0  0  0  0
    4.0479   -3.1476   -0.7238 H   0  0  0  0  0  0  0  0  0  0  0  0
    2.3140   -2.8898   -0.3727 H   0  0  0  0  0  0  0  0  0  0  0  0
    1.9630   -1.9328    2.8286 H   0  0  0  0  0  0  0  0  0  0  0  0
    3.2567   -0.7577    2.4547 H   0  0  0  0  0  0  0  0  0  0  0  0
    1.6990    1.1186    2.9155 H   0  0  0  0  0  0  0  0  0  0  0  0
    0.3998   -0.0208    3.2710 H   0  0  0  0  0  0  0  0  0  0  0  0
    1.8237    0.0558    4.3252 H   0  0  0  0  0  0  0  0  0  0  0  0
   -0.4537    1.9426   -1.5686 H   0  0  0  0  0  0  0  0  0  0  0  0
    1.0088    2.2276   -0.5539 H   0  0  0  0  0  0  0  0  0  0  0  0
   -5.0321    1.4761    0.3938 H   0  0  0  0  0  0  0  0  0  0  0  0
   -5.0601    0.7418    2.0252 H   0  0  0  0  0  0  0  0  0  0  0  0
   -3.0737    2.1978    2.6301 H   0  0  0  0  0  0  0  0  0  0  0  0
   -3.1912    2.9604    1.0373 H   0  0  0  0  0  0  0  0  0  0  0  0
   -4.5087    3.1474    2.2016 H   0  0  0  0  0  0  0  0  0  0  0  0
   -0.7752   -1.5652    0.9966 H   0  0  0  0  0  0  0  0  0  0  0  0
   -2.3905   -2.3209    1.0409 H   0  0  0  0  0  0  0  0  0  0  0  0
   -1.7866   -3.6890   -0.9654 H   0  0  0  0  0  0  0  0  0  0  0  0
   -0.1966   -2.9266   -1.0114 H   0  0  0  0  0  0  0  0  0  0  0  0
   -0.6359   -3.9767    0.3517 H   0  0  0  0  0  0  0  0  0  0  0  0
  1  2  1  0  0  0  0
  2  3  1  0  0  0  0
  3  4  2  0  0  0  0
  4  5  2  0  0  0  0
  4  6  1  0  0  0  0
  6  7  1  0  0  0  0
  7  8  1  0  0  0  0
  4  9  1  0  0  0  0
  9 10  1  0  0  0  0
 10 11  1  0  0  0  0
 11 12  1  0  0  0  0
 12 13  2  0  0  0  0
 12 14  2  0  0  0  0
 14 15  1  0  0  0  0
 15 16  1  0  0  0  0
 12 17  2  0  0  0  0
 17 18  1  0  0  0  0
 18 19  1  0  0  0  0
  1 20  1  0  0  0  0
  1 21  1  0  0  0  0
  1 22  1  0  0  0  0
  2 23  1  0  0  0  0
  2 24  1  0  0  0  0
  7 25  1  0  0  0  0
  7 26  1  0  0  0  0
  8 27  1  0  0  0  0
  8 28  1  0  0  0  0
  8 29  1  0  0  0  0
 10 30  1  0  0  0  0
 10 31  1  0  0  0  0
 15 32  1  0  0  0  0
 15 33  1  0  0  0  0
 16 34  1  0  0  0  0
 16 35  1  0  0  0  0
 16 36  1  0  0  0  0
 18 37  1  0  0  0  0
 18 38  1  0  0  0  0
 19 39  1  0  0  0  0
 19 40  1  0  0  0  0
 19 41  1  0  0  0  0
M  END
