 xtb: 6.7.1 (edcfbbe)
          04092507313D

 38 37  0     0  0            999 V2000
    4.9047   -2.7262   -2.0237 C   0  0  0  0  0  0  0  0  0  0  0  0
    4.9388   -2.0692   -0.6533 C   0  0  0  0  0  0  0  0  0  0  0  0
    3.6671   -2.2066    0.0126 O   0  0  0  0  0  0  0  0  0  0  0  0
    2.7431   -1.2949   -0.1915 C   0  0  0  0  0  0  0  0  0  0  0  0
    2.8786   -0.3161   -0.8989 O   0  0  0  0  0  0  0  0  0  0  0  0
    1.4827   -1.5866    0.5940 C   0  0  0  0  0  0  0  0  0  0  0  0
    0.3249   -0.8188   -0.0232 C   0  0  0  0  0  0  0  0  0  0  0  0
    0.0080   -1.2399   -0.9819 H   0  0  0  0  0  0  0  0  0  0  0  0
    0.6533    0.6463   -0.2399 C   0  0  0  0  0  0  0  0  0  0  0  0
    0.3381    1.2491   -1.2441 O   0  0  0  0  0  0  0  0  0  0  0  0
    1.1944    1.1970    0.8247 O   0  0  0  0  0  0  0  0  0  0  0  0
    1.5219    2.5980    0.7549 C   0  0  0  0  0  0  0  0  0  0  0  0
    1.7686    3.0985    2.1646 C   0  0  0  0  0  0  0  0  0  0  0  0
   -1.1126   -0.8400    1.1023 S   0  0  0  0  0  0  0  0  0  0  0  0
   -2.4210    0.3181   -0.1076 P   0  0  0  0  0  0  0  0  0  0  0  0
   -2.4886   -0.1512   -2.0030 S   0  0  0  0  0  0  0  0  0  0  0  0
   -3.8047    0.1509    0.6699 O   0  0  0  0  0  0  0  0  0  0  0  0
   -4.5279   -1.0867    0.6321 C   0  0  0  0  0  0  0  0  0  0  0  0
   -2.1026    1.8403    0.1915 O   0  0  0  0  0  0  0  0  0  0  0  0
   -2.2080    2.3841    1.5261 C   0  0  0  0  0  0  0  0  0  0  0  0
    4.1916   -2.2145   -2.6668 H   0  0  0  0  0  0  0  0  0  0  0  0
    5.8895   -2.6670   -2.4752 H   0  0  0  0  0  0  0  0  0  0  0  0
    4.6139   -3.7689   -1.9322 H   0  0  0  0  0  0  0  0  0  0  0  0
    5.1753   -1.0051   -0.7397 H   0  0  0  0  0  0  0  0  0  0  0  0
    5.6469   -2.5669    0.0092 H   0  0  0  0  0  0  0  0  0  0  0  0
    1.6429   -1.2495    1.6212 H   0  0  0  0  0  0  0  0  0  0  0  0
    1.2881   -2.6579    0.6092 H   0  0  0  0  0  0  0  0  0  0  0  0
    2.4106    2.6967    0.1235 H   0  0  0  0  0  0  0  0  0  0  0  0
    0.6943    3.1198    0.2630 H   0  0  0  0  0  0  0  0  0  0  0  0
    0.8808    2.9625    2.7750 H   0  0  0  0  0  0  0  0  0  0  0  0
    2.5917    2.5509    2.6130 H   0  0  0  0  0  0  0  0  0  0  0  0
    2.0194    4.1533    2.1270 H   0  0  0  0  0  0  0  0  0  0  0  0
   -4.5636   -1.4677   -0.3895 H   0  0  0  0  0  0  0  0  0  0  0  0
   -5.5280   -0.8514    0.9869 H   0  0  0  0  0  0  0  0  0  0  0  0
   -4.0458   -1.8125    1.2857 H   0  0  0  0  0  0  0  0  0  0  0  0
   -1.6371    1.7713    2.2249 H   0  0  0  0  0  0  0  0  0  0  0  0
   -3.2534    2.4147    1.8254 H   0  0  0  0  0  0  0  0  0  0  0  0
   -1.7952    3.3875    1.4585 H   0  0  0  0  0  0  0  0  0  0  0  0
  1  2  1  0  0  0  0
  2  3  1  0  0  0  0
  3  4  4  0  0  0  0
  4  5  2  0  0  0  0
  4  6  1  0  0  0  0
  6  7  1  0  0  0  0
  7  8  1  0  0  0  0
  7  9  1  0  0  0  0
  9 10  2  0  0  0  0
  9 11  1  0  0  0  0
 11 12  1  0  0  0  0
 12 13  1  0  0  0  0
  7 14  1  0  0  0  0
 14 15  1  0  0  0  0
 15 16  2  0  0  0  0
 15 17  2  0  0  0  0
 17 18  1  0  0  0  0
 15 19  2  0  0  0  0
 19 20  1  0  0  0  0
  1 21  1  0  0  0  0
  1 22  1  0  0  0  0
  1 23  1  0  0  0  0
  2 24  1  0  0  0  0
  2 25  1  0  0  0  0
  6 26  1  0  0  0  0
  6 27  1  0  0  0  0
 12 28  1  0  0  0  0
 12 29  1  0  0  0  0
 13 30  1  0  0  0  0
 13 31  1  0  0  0  0
 13 32  1  0  0  0  0
 18 33  1  0  0  0  0
 18 34  1  0  0  0  0
 18 35  1  0  0  0  0
 20 36  1  0  0  0  0
 20 37  1  0  0  0  0
 20 38  1  0  0  0  0
M  END
