 xtb: 6.7.1 (edcfbbe)
          04092507313D

 38 37  0     0  0            999 V2000
    3.1831   -4.0299   -0.9809 C   0  0  0  0  0  0  0  0  0  0  0  0
    3.9741   -2.7368   -1.0960 C   0  0  0  0  0  0  0  0  0  0  0  0
    3.1908   -1.7221   -1.7558 O   0  0  0  0  0  0  0  0  0  0  0  0
    2.4112   -0.9548   -1.0314 C   0  0  0  0  0  0  0  0  0  0  0  0
    2.3187   -1.0014    0.1799 O   0  0  0  0  0  0  0  0  0  0  0  0
    1.6405    0.0361   -1.8784 C   0  0  0  0  0  0  0  0  0  0  0  0
    0.4408    0.5375   -1.0892 C   0  0  0  0  0  0  0  0  0  0  0  0
   -0.0381    1.3852   -1.5882 H   0  0  0  0  0  0  0  0  0  0  0  0
    0.8327    0.9783    0.3094 C   0  0  0  0  0  0  0  0  0  0  0  0
    0.1907    0.6622    1.2929 O   0  0  0  0  0  0  0  0  0  0  0  0
    1.8533    1.7936    0.3000 O   0  0  0  0  0  0  0  0  0  0  0  0
    2.2648    2.3762    1.5545 C   0  0  0  0  0  0  0  0  0  0  0  0
    1.4481    3.6210    1.8598 C   0  0  0  0  0  0  0  0  0  0  0  0
   -0.8076   -0.7828   -0.9110 S   0  0  0  0  0  0  0  0  0  0  0  0
   -2.1631    0.2094    0.3868 P   0  0  0  0  0  0  0  0  0  0  0  0
   -2.2576    2.1617    0.2828 S   0  0  0  0  0  0  0  0  0  0  0  0
   -3.5348   -0.4729   -0.1206 O   0  0  0  0  0  0  0  0  0  0  0  0
   -4.0873   -0.1774   -1.4053 C   0  0  0  0  0  0  0  0  0  0  0  0
   -2.1663   -0.3895    1.8504 O   0  0  0  0  0  0  0  0  0  0  0  0
   -1.8849   -1.7730    2.1235 C   0  0  0  0  0  0  0  0  0  0  0  0
    2.3057   -3.8771   -0.3562 H   0  0  0  0  0  0  0  0  0  0  0  0
    2.8616   -4.3603   -1.9645 H   0  0  0  0  0  0  0  0  0  0  0  0
    3.8073   -4.7949   -0.5311 H   0  0  0  0  0  0  0  0  0  0  0  0
    4.8515   -2.8613   -1.7307 H   0  0  0  0  0  0  0  0  0  0  0  0
    4.2649   -2.3686   -0.1081 H   0  0  0  0  0  0  0  0  0  0  0  0
    1.3317   -0.4374   -2.8094 H   0  0  0  0  0  0  0  0  0  0  0  0
    2.3007    0.8753   -2.1075 H   0  0  0  0  0  0  0  0  0  0  0  0
    2.1464    1.6245    2.3396 H   0  0  0  0  0  0  0  0  0  0  0  0
    3.3185    2.6131    1.4079 H   0  0  0  0  0  0  0  0  0  0  0  0
    1.5592    4.3489    1.0610 H   0  0  0  0  0  0  0  0  0  0  0  0
    0.3936    3.3659    1.9528 H   0  0  0  0  0  0  0  0  0  0  0  0
    1.7886    4.0551    2.7938 H   0  0  0  0  0  0  0  0  0  0  0  0
   -4.1122    0.9027   -1.5607 H   0  0  0  0  0  0  0  0  0  0  0  0
   -5.0959   -0.5822   -1.3909 H   0  0  0  0  0  0  0  0  0  0  0  0
   -3.4909   -0.6530   -2.1840 H   0  0  0  0  0  0  0  0  0  0  0  0
   -2.1616   -1.9184    3.1645 H   0  0  0  0  0  0  0  0  0  0  0  0
   -0.8192   -1.9577    1.9827 H   0  0  0  0  0  0  0  0  0  0  0  0
   -2.4736   -2.4163    1.4708 H   0  0  0  0  0  0  0  0  0  0  0  0
  1  2  1  0  0  0  0
  2  3  1  0  0  0  0
  3  4  4  0  0  0  0
  4  5  2  0  0  0  0
  4  6  1  0  0  0  0
  6  7  1  0  0  0  0
  7  8  1  0  0  0  0
  7  9  1  0  0  0  0
  9 10  2  0  0  0  0
  9 11  4  0  0  0  0
 11 12  1  0  0  0  0
 12 13  1  0  0  0  0
  7 14  1  0  0  0  0
 14 15  1  0  0  0  0
 15 16  2  0  0  0  0
 15 17  1  0  0  0  0
 17 18  1  0  0  0  0
 15 19  2  0  0  0  0
 19 20  1  0  0  0  0
  1 21  1  0  0  0  0
  1 22  1  0  0  0  0
  1 23  1  0  0  0  0
  2 24  1  0  0  0  0
  2 25  1  0  0  0  0
  6 26  1  0  0  0  0
  6 27  1  0  0  0  0
 12 28  1  0  0  0  0
 12 29  1  0  0  0  0
 13 30  1  0  0  0  0
 13 31  1  0  0  0  0
 13 32  1  0  0  0  0
 18 33  1  0  0  0  0
 18 34  1  0  0  0  0
 18 35  1  0  0  0  0
 20 36  1  0  0  0  0
 20 37  1  0  0  0  0
 20 38  1  0  0  0  0
M  END
