 xtb: 6.7.1 (edcfbbe)
          04092505203D

 41 40  0     0  0            999 V2000
    4.1087    1.0486   -2.0977 C   0  0  0  0  0  0  0  0  0  0  0  0
    2.7498    0.4040   -2.2806 C   0  0  0  0  0  0  0  0  0  0  0  0
    2.4391   -0.4876   -1.1964 O   0  0  0  0  0  0  0  0  0  0  0  0
    2.0743    0.0382    0.2638 P   0  0  0  0  0  0  0  0  0  0  0  0
    1.3713    1.8479    0.4639 S   0  0  0  0  0  0  0  0  0  0  0  0
    3.4251   -0.0667    1.1027 O   0  0  0  0  0  0  0  0  0  0  0  0
    4.1991   -1.2879    1.1729 C   0  0  0  0  0  0  0  0  0  0  0  0
    4.1216   -1.8758    2.5681 C   0  0  0  0  0  0  0  0  0  0  0  0
    0.9101   -1.5961    0.9272 S   0  0  0  0  0  0  0  0  0  0  0  0
   -0.4045   -0.6908    1.8153 C   0  0  0  0  0  0  0  0  0  0  0  0
   -2.0600   -1.0035    1.1604 S   0  0  0  0  0  0  0  0  0  0  0  0
   -2.0201    0.3036   -0.5218 P   0  0  0  0  0  0  0  0  0  0  0  0
   -0.6941   -0.0985   -1.9094 S   0  0  0  0  0  0  0  0  0  0  0  0
   -1.8402    1.7594    0.0551 O   0  0  0  0  0  0  0  0  0  0  0  0
   -2.8848    2.5993    0.6058 C   0  0  0  0  0  0  0  0  0  0  0  0
   -3.5029    2.0254    1.8631 C   0  0  0  0  0  0  0  0  0  0  0  0
   -3.5246    0.3034   -1.0276 O   0  0  0  0  0  0  0  0  0  0  0  0
   -4.0224   -0.6620   -1.9718 C   0  0  0  0  0  0  0  0  0  0  0  0
   -4.0163   -2.0682   -1.4094 C   0  0  0  0  0  0  0  0  0  0  0  0
    4.1100    1.6522   -1.1897 H   0  0  0  0  0  0  0  0  0  0  0  0
    4.8798    0.2866   -2.0182 H   0  0  0  0  0  0  0  0  0  0  0  0
    4.3196    1.6888   -2.9484 H   0  0  0  0  0  0  0  0  0  0  0  0
    2.7098   -0.2335   -3.1651 H   0  0  0  0  0  0  0  0  0  0  0  0
    1.9607    1.1599   -2.3475 H   0  0  0  0  0  0  0  0  0  0  0  0
    3.8288   -1.9920    0.4219 H   0  0  0  0  0  0  0  0  0  0  0  0
    5.2204   -0.9920    0.9259 H   0  0  0  0  0  0  0  0  0  0  0  0
    3.1091   -2.2058    2.7859 H   0  0  0  0  0  0  0  0  0  0  0  0
    4.7938   -2.7255    2.6320 H   0  0  0  0  0  0  0  0  0  0  0  0
    4.4154   -1.1281    3.2994 H   0  0  0  0  0  0  0  0  0  0  0  0
   -0.1818    0.3788    1.7642 H   0  0  0  0  0  0  0  0  0  0  0  0
   -0.4204   -1.0488    2.8408 H   0  0  0  0  0  0  0  0  0  0  0  0
   -2.3610    3.5359    0.8050 H   0  0  0  0  0  0  0  0  0  0  0  0
   -3.6400    2.7504   -0.1676 H   0  0  0  0  0  0  0  0  0  0  0  0
   -2.7359    1.8228    2.6065 H   0  0  0  0  0  0  0  0  0  0  0  0
   -4.2047    2.7487    2.2669 H   0  0  0  0  0  0  0  0  0  0  0  0
   -4.0333    1.1026    1.6394 H   0  0  0  0  0  0  0  0  0  0  0  0
   -5.0345   -0.3152   -2.1850 H   0  0  0  0  0  0  0  0  0  0  0  0
   -3.4093   -0.6068   -2.8766 H   0  0  0  0  0  0  0  0  0  0  0  0
   -4.5100   -2.7358   -2.1082 H   0  0  0  0  0  0  0  0  0  0  0  0
   -2.9906   -2.4057   -1.2657 H   0  0  0  0  0  0  0  0  0  0  0  0
   -4.5318   -2.0982   -0.4529 H   0  0  0  0  0  0  0  0  0  0  0  0
  1  2  1  0  0  0  0
  2  3  1  0  0  0  0
  3  4  1  0  0  0  0
  4  5  2  0  0  0  0
  4  6  2  0  0  0  0
  6  7  1  0  0  0  0
  7  8  1  0  0  0  0
  4  9  1  0  0  0  0
  9 10  1  0  0  0  0
 10 11  1  0  0  0  0
 11 12  1  0  0  0  0
 12 13  2  0  0  0  0
 12 14  2  0  0  0  0
 14 15  1  0  0  0  0
 15 16  1  0  0  0  0
 12 17  2  0  0  0  0
 17 18  1  0  0  0  0
 18 19  1  0  0  0  0
  1 20  1  0  0  0  0
  1 21  1  0  0  0  0
  1 22  1  0  0  0  0
  2 23  1  0  0  0  0
  2 24  1  0  0  0  0
  7 25  1  0  0  0  0
  7 26  1  0  0  0  0
  8 27  1  0  0  0  0
  8 28  1  0  0  0  0
  8 29  1  0  0  0  0
 10 30  1  0  0  0  0
 10 31  1  0  0  0  0
 15 32  1  0  0  0  0
 15 33  1  0  0  0  0
 16 34  1  0  0  0  0
 16 35  1  0  0  0  0
 16 36  1  0  0  0  0
 18 37  1  0  0  0  0
 18 38  1  0  0  0  0
 19 39  1  0  0  0  0
 19 40  1  0  0  0  0
 19 41  1  0  0  0  0
M  END
