 xtb: 6.7.1 (edcfbbe)
          04092505203D

 41 40  0     0  0            999 V2000
    2.0563    2.4909   -1.0036 C   0  0  0  0  0  0  0  0  0  0  0  0
    2.0013    1.0766   -1.5394 C   0  0  0  0  0  0  0  0  0  0  0  0
    1.3225    0.1661   -0.6483 O   0  0  0  0  0  0  0  0  0  0  0  0
    1.8075   -0.0947    0.8622 P   0  0  0  0  0  0  0  0  0  0  0  0
    1.1379    1.1432    2.2168 S   0  0  0  0  0  0  0  0  0  0  0  0
    3.3892   -0.0592    0.8706 O   0  0  0  0  0  0  0  0  0  0  0  0
    4.2548   -1.0191    0.2104 C   0  0  0  0  0  0  0  0  0  0  0  0
    4.7965   -2.0131    1.2175 C   0  0  0  0  0  0  0  0  0  0  0  0
    1.3173   -2.1452    1.0400 S   0  0  0  0  0  0  0  0  0  0  0  0
   -0.3058   -2.1929    0.2277 C   0  0  0  0  0  0  0  0  0  0  0  0
   -1.4967   -0.9985    0.8879 S   0  0  0  0  0  0  0  0  0  0  0  0
   -1.7412    0.2615   -0.8221 P   0  0  0  0  0  0  0  0  0  0  0  0
   -1.0650   -0.4060   -2.5287 S   0  0  0  0  0  0  0  0  0  0  0  0
   -1.1721    1.6753   -0.4140 O   0  0  0  0  0  0  0  0  0  0  0  0
   -1.7313    2.4499    0.6766 C   0  0  0  0  0  0  0  0  0  0  0  0
   -2.6191    3.5526    0.1400 C   0  0  0  0  0  0  0  0  0  0  0  0
   -3.3097    0.5481   -0.8121 O   0  0  0  0  0  0  0  0  0  0  0  0
   -4.2596   -0.2910   -1.4914 C   0  0  0  0  0  0  0  0  0  0  0  0
   -4.3354   -1.6866   -0.9068 C   0  0  0  0  0  0  0  0  0  0  0  0
    2.5477    3.1298   -1.7307 H   0  0  0  0  0  0  0  0  0  0  0  0
    1.0501    2.8594   -0.8203 H   0  0  0  0  0  0  0  0  0  0  0  0
    2.6125    2.5159   -0.0665 H   0  0  0  0  0  0  0  0  0  0  0  0
    3.0072    0.6928   -1.7260 H   0  0  0  0  0  0  0  0  0  0  0  0
    1.4105    1.0167   -2.4564 H   0  0  0  0  0  0  0  0  0  0  0  0
    3.7019   -1.5270   -0.5839 H   0  0  0  0  0  0  0  0  0  0  0  0
    5.0567   -0.4149   -0.2180 H   0  0  0  0  0  0  0  0  0  0  0  0
    5.5024   -2.6719    0.7219 H   0  0  0  0  0  0  0  0  0  0  0  0
    5.2988   -1.4868    2.0243 H   0  0  0  0  0  0  0  0  0  0  0  0
    3.9867   -2.6070    1.6364 H   0  0  0  0  0  0  0  0  0  0  0  0
   -0.6871   -3.1923    0.4243 H   0  0  0  0  0  0  0  0  0  0  0  0
   -0.1891   -2.0150   -0.8448 H   0  0  0  0  0  0  0  0  0  0  0  0
   -2.2811    1.7817    1.3445 H   0  0  0  0  0  0  0  0  0  0  0  0
   -0.8670    2.8490    1.2125 H   0  0  0  0  0  0  0  0  0  0  0  0
   -2.9653    4.1591    0.9708 H   0  0  0  0  0  0  0  0  0  0  0  0
   -2.0610    4.1772   -0.5521 H   0  0  0  0  0  0  0  0  0  0  0  0
   -3.4751    3.1290   -0.3786 H   0  0  0  0  0  0  0  0  0  0  0  0
   -5.2040    0.2430   -1.3762 H   0  0  0  0  0  0  0  0  0  0  0  0
   -3.9832   -0.3336   -2.5496 H   0  0  0  0  0  0  0  0  0  0  0  0
   -4.4905   -1.6408    0.1683 H   0  0  0  0  0  0  0  0  0  0  0  0
   -5.1604   -2.2201   -1.3679 H   0  0  0  0  0  0  0  0  0  0  0  0
   -3.4113   -2.2263   -1.1081 H   0  0  0  0  0  0  0  0  0  0  0  0
  1  2  1  0  0  0  0
  2  3  1  0  0  0  0
  3  4  1  0  0  0  0
  4  5  2  0  0  0  0
  4  6  2  0  0  0  0
  6  7  1  0  0  0  0
  7  8  1  0  0  0  0
  4  9  1  0  0  0  0
  9 10  1  0  0  0  0
 10 11  1  0  0  0  0
 11 12  1  0  0  0  0
 12 13  2  0  0  0  0
 12 14  2  0  0  0  0
 14 15  1  0  0  0  0
 15 16  1  0  0  0  0
 12 17  2  0  0  0  0
 17 18  1  0  0  0  0
 18 19  1  0  0  0  0
  1 20  1  0  0  0  0
  1 21  1  0  0  0  0
  1 22  1  0  0  0  0
  2 23  1  0  0  0  0
  2 24  1  0  0  0  0
  7 25  1  0  0  0  0
  7 26  1  0  0  0  0
  8 27  1  0  0  0  0
  8 28  1  0  0  0  0
  8 29  1  0  0  0  0
 10 30  1  0  0  0  0
 10 31  1  0  0  0  0
 15 32  1  0  0  0  0
 15 33  1  0  0  0  0
 16 34  1  0  0  0  0
 16 35  1  0  0  0  0
 16 36  1  0  0  0  0
 18 37  1  0  0  0  0
 18 38  1  0  0  0  0
 19 39  1  0  0  0  0
 19 40  1  0  0  0  0
 19 41  1  0  0  0  0
M  END
