 xtb: 6.7.1 (edcfbbe)
          04092507313D

 38 37  0     0  0            999 V2000
    4.0153   -1.1389    1.6673 C   0  0  0  0  0  0  0  0  0  0  0  0
    2.8285   -1.9233    1.1328 C   0  0  0  0  0  0  0  0  0  0  0  0
    2.4440   -1.4478   -0.1708 O   0  0  0  0  0  0  0  0  0  0  0  0
    1.5439   -0.5040   -0.2643 C   0  0  0  0  0  0  0  0  0  0  0  0
    1.0182    0.0662    0.6781 O   0  0  0  0  0  0  0  0  0  0  0  0
    1.2385   -0.1397   -1.6997 C   0  0  0  0  0  0  0  0  0  0  0  0
    0.1822    0.9541   -1.7360 C   0  0  0  0  0  0  0  0  0  0  0  0
    0.1630    1.4296   -2.7207 H   0  0  0  0  0  0  0  0  0  0  0  0
    0.4432    2.0372   -0.6948 C   0  0  0  0  0  0  0  0  0  0  0  0
   -0.4178    2.5232    0.0015 O   0  0  0  0  0  0  0  0  0  0  0  0
    1.6949    2.4445   -0.7535 O   0  0  0  0  0  0  0  0  0  0  0  0
    2.1203    3.4849    0.1511 C   0  0  0  0  0  0  0  0  0  0  0  0
    2.7992    2.8841    1.3705 C   0  0  0  0  0  0  0  0  0  0  0  0
   -1.5318    0.3582   -1.5556 S   0  0  0  0  0  0  0  0  0  0  0  0
   -1.6569   -0.9011    0.1512 P   0  0  0  0  0  0  0  0  0  0  0  0
   -0.6191   -2.5631    0.1730 S   0  0  0  0  0  0  0  0  0  0  0  0
   -1.5938   -0.1046    1.5114 O   0  0  0  0  0  0  0  0  0  0  0  0
   -2.4597    1.0000    1.8384 C   0  0  0  0  0  0  0  0  0  0  0  0
   -3.2320   -1.1914    0.0713 O   0  0  0  0  0  0  0  0  0  0  0  0
   -3.7872   -2.0322   -0.9454 C   0  0  0  0  0  0  0  0  0  0  0  0
    4.8354   -1.1757    0.9559 H   0  0  0  0  0  0  0  0  0  0  0  0
    3.7340   -0.1022    1.8372 H   0  0  0  0  0  0  0  0  0  0  0  0
    4.3353   -1.5746    2.6078 H   0  0  0  0  0  0  0  0  0  0  0  0
    1.9652   -1.8443    1.8004 H   0  0  0  0  0  0  0  0  0  0  0  0
    3.0778   -2.9727    0.9740 H   0  0  0  0  0  0  0  0  0  0  0  0
    0.9101   -1.0320   -2.2354 H   0  0  0  0  0  0  0  0  0  0  0  0
    2.1622    0.2163   -2.1597 H   0  0  0  0  0  0  0  0  0  0  0  0
    2.8113    4.0944   -0.4321 H   0  0  0  0  0  0  0  0  0  0  0  0
    1.2436    4.0706    0.4408 H   0  0  0  0  0  0  0  0  0  0  0  0
    3.0593    3.6743    2.0669 H   0  0  0  0  0  0  0  0  0  0  0  0
    2.1220    2.1856    1.8599 H   0  0  0  0  0  0  0  0  0  0  0  0
    3.7007    2.3536    1.0754 H   0  0  0  0  0  0  0  0  0  0  0  0
   -2.3631    1.1210    2.9142 H   0  0  0  0  0  0  0  0  0  0  0  0
   -3.4863    0.7678    1.5634 H   0  0  0  0  0  0  0  0  0  0  0  0
   -2.1125    1.8934    1.3202 H   0  0  0  0  0  0  0  0  0  0  0  0
   -3.1783   -2.9305   -1.0600 H   0  0  0  0  0  0  0  0  0  0  0  0
   -3.8341   -1.4896   -1.8886 H   0  0  0  0  0  0  0  0  0  0  0  0
   -4.7844   -2.2912   -0.5986 H   0  0  0  0  0  0  0  0  0  0  0  0
  1  2  1  0  0  0  0
  2  3  1  0  0  0  0
  3  4  4  0  0  0  0
  4  5  2  0  0  0  0
  4  6  1  0  0  0  0
  6  7  1  0  0  0  0
  7  8  1  0  0  0  0
  7  9  1  0  0  0  0
  9 10  2  0  0  0  0
  9 11  1  0  0  0  0
 11 12  1  0  0  0  0
 12 13  1  0  0  0  0
  7 14  1  0  0  0  0
 14 15  1  0  0  0  0
 15 16  2  0  0  0  0
 15 17  2  0  0  0  0
 17 18  1  0  0  0  0
 15 19  1  0  0  0  0
 19 20  1  0  0  0  0
  1 21  1  0  0  0  0
  1 22  1  0  0  0  0
  1 23  1  0  0  0  0
  2 24  1  0  0  0  0
  2 25  1  0  0  0  0
  6 26  1  0  0  0  0
  6 27  1  0  0  0  0
 12 28  1  0  0  0  0
 12 29  1  0  0  0  0
 13 30  1  0  0  0  0
 13 31  1  0  0  0  0
 13 32  1  0  0  0  0
 18 33  1  0  0  0  0
 18 34  1  0  0  0  0
 18 35  1  0  0  0  0
 20 36  1  0  0  0  0
 20 37  1  0  0  0  0
 20 38  1  0  0  0  0
M  END
