 xtb: 6.7.1 (edcfbbe)
          04092505203D

 41 40  0     0  0            999 V2000
    4.5178    0.5697   -2.0551 C   0  0  0  0  0  0  0  0  0  0  0  0
    4.6464    0.0281   -0.6473 C   0  0  0  0  0  0  0  0  0  0  0  0
    3.6041    0.4998    0.2275 O   0  0  0  0  0  0  0  0  0  0  0  0
    2.0485    0.3215   -0.0280 P   0  0  0  0  0  0  0  0  0  0  0  0
    1.1587    1.5451   -1.2794 S   0  0  0  0  0  0  0  0  0  0  0  0
    1.4621    0.5613    1.4173 O   0  0  0  0  0  0  0  0  0  0  0  0
    2.0590    0.1400    2.6722 C   0  0  0  0  0  0  0  0  0  0  0  0
    2.0258   -1.3627    2.8619 C   0  0  0  0  0  0  0  0  0  0  0  0
    1.8710   -1.7349   -0.5476 S   0  0  0  0  0  0  0  0  0  0  0  0
    0.1240   -1.7196   -0.9834 C   0  0  0  0  0  0  0  0  0  0  0  0
   -0.9549   -1.4017    0.4500 S   0  0  0  0  0  0  0  0  0  0  0  0
   -2.0987    0.2370   -0.2796 P   0  0  0  0  0  0  0  0  0  0  0  0
   -2.1748    0.4594   -2.2189 S   0  0  0  0  0  0  0  0  0  0  0  0
   -1.5762    1.5129    0.4858 O   0  0  0  0  0  0  0  0  0  0  0  0
   -1.5177    1.6103    1.9293 C   0  0  0  0  0  0  0  0  0  0  0  0
   -2.7325    2.3317    2.4748 C   0  0  0  0  0  0  0  0  0  0  0  0
   -3.5116    0.0022    0.4201 O   0  0  0  0  0  0  0  0  0  0  0  0
   -4.5531   -0.7892   -0.1790 C   0  0  0  0  0  0  0  0  0  0  0  0
   -4.1842   -2.2545   -0.2878 C   0  0  0  0  0  0  0  0  0  0  0  0
    3.5995    0.2070   -2.5151 H   0  0  0  0  0  0  0  0  0  0  0  0
    4.4851    1.6567   -2.0431 H   0  0  0  0  0  0  0  0  0  0  0  0
    5.3649    0.2409   -2.6483 H   0  0  0  0  0  0  0  0  0  0  0  0
    5.5614    0.3791   -0.1669 H   0  0  0  0  0  0  0  0  0  0  0  0
    4.6208   -1.0649   -0.6503 H   0  0  0  0  0  0  0  0  0  0  0  0
    3.0804    0.5216    2.7088 H   0  0  0  0  0  0  0  0  0  0  0  0
    1.4452    0.6480    3.4180 H   0  0  0  0  0  0  0  0  0  0  0  0
    2.7115   -1.8544    2.1763 H   0  0  0  0  0  0  0  0  0  0  0  0
    2.3222   -1.5918    3.8808 H   0  0  0  0  0  0  0  0  0  0  0  0
    1.0223   -1.7450    2.6877 H   0  0  0  0  0  0  0  0  0  0  0  0
   -0.0995   -2.7118   -1.3669 H   0  0  0  0  0  0  0  0  0  0  0  0
   -0.0690   -0.9508   -1.7373 H   0  0  0  0  0  0  0  0  0  0  0  0
   -1.4309    0.6031    2.3475 H   0  0  0  0  0  0  0  0  0  0  0  0
   -0.5994    2.1694    2.1215 H   0  0  0  0  0  0  0  0  0  0  0  0
   -2.8272    3.3061    2.0030 H   0  0  0  0  0  0  0  0  0  0  0  0
   -3.6331    1.7568    2.2774 H   0  0  0  0  0  0  0  0  0  0  0  0
   -2.6146    2.4608    3.5462 H   0  0  0  0  0  0  0  0  0  0  0  0
   -5.4060   -0.6374    0.4840 H   0  0  0  0  0  0  0  0  0  0  0  0
   -4.7710   -0.3746   -1.1680 H   0  0  0  0  0  0  0  0  0  0  0  0
   -3.8454   -2.6343    0.6728 H   0  0  0  0  0  0  0  0  0  0  0  0
   -5.0543   -2.8161   -0.6124 H   0  0  0  0  0  0  0  0  0  0  0  0
   -3.3901   -2.3834   -1.0216 H   0  0  0  0  0  0  0  0  0  0  0  0
  1  2  1  0  0  0  0
  2  3  1  0  0  0  0
  3  4  2  0  0  0  0
  4  5  2  0  0  0  0
  4  6  2  0  0  0  0
  6  7  1  0  0  0  0
  7  8  1  0  0  0  0
  4  9  1  0  0  0  0
  9 10  1  0  0  0  0
 10 11  1  0  0  0  0
 11 12  1  0  0  0  0
 12 13  2  0  0  0  0
 12 14  2  0  0  0  0
 14 15  1  0  0  0  0
 15 16  1  0  0  0  0
 12 17  2  0  0  0  0
 17 18  1  0  0  0  0
 18 19  1  0  0  0  0
  1 20  1  0  0  0  0
  1 21  1  0  0  0  0
  1 22  1  0  0  0  0
  2 23  1  0  0  0  0
  2 24  1  0  0  0  0
  7 25  1  0  0  0  0
  7 26  1  0  0  0  0
  8 27  1  0  0  0  0
  8 28  1  0  0  0  0
  8 29  1  0  0  0  0
 10 30  1  0  0  0  0
 10 31  1  0  0  0  0
 15 32  1  0  0  0  0
 15 33  1  0  0  0  0
 16 34  1  0  0  0  0
 16 35  1  0  0  0  0
 16 36  1  0  0  0  0
 18 37  1  0  0  0  0
 18 38  1  0  0  0  0
 19 39  1  0  0  0  0
 19 40  1  0  0  0  0
 19 41  1  0  0  0  0
M  END
