 xtb: 6.7.1 (edcfbbe)
          04092505213D

 41 40  0     0  0            999 V2000
    3.2839    0.6034   -2.8516 C   0  0  0  0  0  0  0  0  0  0  0  0
    3.1752   -0.5544   -1.8806 C   0  0  0  0  0  0  0  0  0  0  0  0
    3.4486   -0.1071   -0.5283 O   0  0  0  0  0  0  0  0  0  0  0  0
    2.3149    0.1537    0.5447 P   0  0  0  0  0  0  0  0  0  0  0  0
    3.0477    0.6652    2.2788 S   0  0  0  0  0  0  0  0  0  0  0  0
    1.3691   -1.1335    0.5682 O   0  0  0  0  0  0  0  0  0  0  0  0
    1.5553   -2.2018    1.5142 C   0  0  0  0  0  0  0  0  0  0  0  0
    2.7823   -3.0246    1.1816 C   0  0  0  0  0  0  0  0  0  0  0  0
    1.0158    1.5408   -0.3679 S   0  0  0  0  0  0  0  0  0  0  0  0
   -0.0738    1.7760    1.0568 C   0  0  0  0  0  0  0  0  0  0  0  0
   -1.1837    0.3784    1.3971 S   0  0  0  0  0  0  0  0  0  0  0  0
   -1.8767   -0.0150   -0.6024 P   0  0  0  0  0  0  0  0  0  0  0  0
   -0.7693   -1.1778   -1.7251 S   0  0  0  0  0  0  0  0  0  0  0  0
   -2.1757    1.3772   -1.2728 O   0  0  0  0  0  0  0  0  0  0  0  0
   -3.4206    2.1164   -1.1651 C   0  0  0  0  0  0  0  0  0  0  0  0
   -3.6216    2.7292    0.2049 C   0  0  0  0  0  0  0  0  0  0  0  0
   -3.3245   -0.6043   -0.3219 O   0  0  0  0  0  0  0  0  0  0  0  0
   -3.4902   -1.9334    0.2112 C   0  0  0  0  0  0  0  0  0  0  0  0
   -4.9471   -2.3183    0.0556 C   0  0  0  0  0  0  0  0  0  0  0  0
    4.2542    1.0823   -2.7527 H   0  0  0  0  0  0  0  0  0  0  0  0
    3.1660    0.2272   -3.8629 H   0  0  0  0  0  0  0  0  0  0  0  0
    2.5060    1.3394   -2.6567 H   0  0  0  0  0  0  0  0  0  0  0  0
    3.9383   -1.3089   -2.0786 H   0  0  0  0  0  0  0  0  0  0  0  0
    2.1830   -1.0137   -1.9195 H   0  0  0  0  0  0  0  0  0  0  0  0
    1.6356   -1.7674    2.5160 H   0  0  0  0  0  0  0  0  0  0  0  0
    0.6376   -2.7868    1.4339 H   0  0  0  0  0  0  0  0  0  0  0  0
    2.7071   -3.4194    0.1713 H   0  0  0  0  0  0  0  0  0  0  0  0
    3.6733   -2.4006    1.2547 H   0  0  0  0  0  0  0  0  0  0  0  0
    2.8668   -3.8462    1.8857 H   0  0  0  0  0  0  0  0  0  0  0  0
   -0.6633    2.6643    0.8448 H   0  0  0  0  0  0  0  0  0  0  0  0
    0.5307    1.9107    1.9553 H   0  0  0  0  0  0  0  0  0  0  0  0
   -3.3202    2.8803   -1.9374 H   0  0  0  0  0  0  0  0  0  0  0  0
   -4.2403    1.4407   -1.4123 H   0  0  0  0  0  0  0  0  0  0  0  0
   -4.5666    3.2640    0.2124 H   0  0  0  0  0  0  0  0  0  0  0  0
   -3.6503    1.9543    0.9679 H   0  0  0  0  0  0  0  0  0  0  0  0
   -2.8230    3.4292    0.4365 H   0  0  0  0  0  0  0  0  0  0  0  0
   -2.8323   -2.6135   -0.3402 H   0  0  0  0  0  0  0  0  0  0  0  0
   -3.1894   -1.9175    1.2627 H   0  0  0  0  0  0  0  0  0  0  0  0
   -5.5778   -1.6138    0.5897 H   0  0  0  0  0  0  0  0  0  0  0  0
   -5.2238   -2.3160   -0.9949 H   0  0  0  0  0  0  0  0  0  0  0  0
   -5.0963   -3.3131    0.4622 H   0  0  0  0  0  0  0  0  0  0  0  0
  1  2  1  0  0  0  0
  2  3  1  0  0  0  0
  3  4  2  0  0  0  0
  4  5  2  0  0  0  0
  4  6  1  0  0  0  0
  6  7  1  0  0  0  0
  7  8  1  0  0  0  0
  4  9  1  0  0  0  0
  9 10  1  0  0  0  0
 10 11  1  0  0  0  0
 11 12  1  0  0  0  0
 12 13  2  0  0  0  0
 12 14  2  0  0  0  0
 14 15  1  0  0  0  0
 15 16  1  0  0  0  0
 12 17  2  0  0  0  0
 17 18  1  0  0  0  0
 18 19  1  0  0  0  0
  1 20  1  0  0  0  0
  1 21  1  0  0  0  0
  1 22  1  0  0  0  0
  2 23  1  0  0  0  0
  2 24  1  0  0  0  0
  7 25  1  0  0  0  0
  7 26  1  0  0  0  0
  8 27  1  0  0  0  0
  8 28  1  0  0  0  0
  8 29  1  0  0  0  0
 10 30  1  0  0  0  0
 10 31  1  0  0  0  0
 15 32  1  0  0  0  0
 15 33  1  0  0  0  0
 16 34  1  0  0  0  0
 16 35  1  0  0  0  0
 16 36  1  0  0  0  0
 18 37  1  0  0  0  0
 18 38  1  0  0  0  0
 19 39  1  0  0  0  0
 19 40  1  0  0  0  0
 19 41  1  0  0  0  0
M  END
