 xtb: 6.7.1 (edcfbbe)
          04032520273D

 24 25  0     0  0            999 V2000
   -1.0427   -2.9163   -0.0002 C   0  0  0  0  0  0  0  0  0  0  0  0
   -1.0104   -1.4172   -0.0000 C   0  0  0  0  0  0  0  0  0  0  0  0
   -2.1780   -0.7009    0.0001 C   0  0  0  0  0  0  0  0  0  0  0  0
   -2.1784    0.6995    0.0001 C   0  0  0  0  0  0  0  0  0  0  0  0
   -1.0113    1.4165   -0.0000 C   0  0  0  0  0  0  0  0  0  0  0  0
    0.2234    0.7117   -0.0000 C   0  0  0  0  0  0  0  0  0  0  0  0
    0.2239   -0.7115    0.0000 C   0  0  0  0  0  0  0  0  0  0  0  0
    1.4650   -1.3849    0.0001 C   0  0  0  0  0  0  0  0  0  0  0  0
    2.6474   -0.6995    0.0001 C   0  0  0  0  0  0  0  0  0  0  0  0
    2.6469    0.7012   -0.0000 C   0  0  0  0  0  0  0  0  0  0  0  0
    1.4641    1.3859   -0.0000 C   0  0  0  0  0  0  0  0  0  0  0  0
   -1.0447    2.9156   -0.0001 C   0  0  0  0  0  0  0  0  0  0  0  0
   -2.0708   -3.2688   -0.0006 H   0  0  0  0  0  0  0  0  0  0  0  0
   -0.5423   -3.3125   -0.8825 H   0  0  0  0  0  0  0  0  0  0  0  0
   -0.5430   -3.3127    0.8825 H   0  0  0  0  0  0  0  0  0  0  0  0
   -3.1260   -1.2202    0.0002 H   0  0  0  0  0  0  0  0  0  0  0  0
   -3.1268    1.2181    0.0003 H   0  0  0  0  0  0  0  0  0  0  0  0
    1.4783   -2.4633    0.0001 H   0  0  0  0  0  0  0  0  0  0  0  0
    3.5866   -1.2330    0.0001 H   0  0  0  0  0  0  0  0  0  0  0  0
    3.5857    1.2354    0.0000 H   0  0  0  0  0  0  0  0  0  0  0  0
    1.4768    2.4642   -0.0000 H   0  0  0  0  0  0  0  0  0  0  0  0
   -0.5455    3.3123    0.8827 H   0  0  0  0  0  0  0  0  0  0  0  0
   -0.5444    3.3122   -0.8823 H   0  0  0  0  0  0  0  0  0  0  0  0
   -2.0732    3.2674   -0.0007 H   0  0  0  0  0  0  0  0  0  0  0  0
  1  2  1  0  0  0  0
  2  3  2  0  0  0  0
  3  4  4  0  0  0  0
  4  5  2  0  0  0  0
  5  6  4  0  0  0  0
  2  7  4  0  0  0  0
  6  7  4  0  0  0  0
  7  8  4  0  0  0  0
  8  9  2  0  0  0  0
  9 10  4  0  0  0  0
  6 11  4  0  0  0  0
 10 11  2  0  0  0  0
  5 12  1  0  0  0  0
  1 13  1  0  0  0  0
  1 14  1  0  0  0  0
  1 15  1  0  0  0  0
  3 16  1  0  0  0  0
  4 17  1  0  0  0  0
  8 18  1  0  0  0  0
  9 19  1  0  0  0  0
 10 20  1  0  0  0  0
 11 21  1  0  0  0  0
 12 22  1  0  0  0  0
 12 23  1  0  0  0  0
 12 24  1  0  0  0  0
M  END
