 xtb: 6.7.1 (edcfbbe)
          04092505213D

 41 40  0     0  0            999 V2000
    4.3272    0.1966   -2.2575 C   0  0  0  0  0  0  0  0  0  0  0  0
    2.9958   -0.4992   -2.0663 C   0  0  0  0  0  0  0  0  0  0  0  0
    2.1215    0.2868   -1.2173 O   0  0  0  0  0  0  0  0  0  0  0  0
    1.9901    0.0922    0.3360 P   0  0  0  0  0  0  0  0  0  0  0  0
    0.8224    1.4267    1.1565 S   0  0  0  0  0  0  0  0  0  0  0  0
    3.4918    0.1367    0.8481 O   0  0  0  0  0  0  0  0  0  0  0  0
    3.8017    0.0667    2.2557 C   0  0  0  0  0  0  0  0  0  0  0  0
    5.2445    0.4926    2.4349 C   0  0  0  0  0  0  0  0  0  0  0  0
    1.5251   -1.9714    0.6403 S   0  0  0  0  0  0  0  0  0  0  0  0
   -0.1263   -2.0347   -0.0922 C   0  0  0  0  0  0  0  0  0  0  0  0
   -1.4164   -1.3062    0.9779 S   0  0  0  0  0  0  0  0  0  0  0  0
   -2.2857   -0.0309   -0.4524 P   0  0  0  0  0  0  0  0  0  0  0  0
   -1.1213    0.7126   -1.8551 S   0  0  0  0  0  0  0  0  0  0  0  0
   -3.1685    1.0030    0.3601 O   0  0  0  0  0  0  0  0  0  0  0  0
   -2.6841    2.1671    1.0529 C   0  0  0  0  0  0  0  0  0  0  0  0
   -2.5034    1.8752    2.5288 C   0  0  0  0  0  0  0  0  0  0  0  0
   -3.3909   -1.0203   -1.0069 O   0  0  0  0  0  0  0  0  0  0  0  0
   -4.0584   -0.8189   -2.2692 C   0  0  0  0  0  0  0  0  0  0  0  0
   -5.0069    0.3604   -2.2234 C   0  0  0  0  0  0  0  0  0  0  0  0
    4.1710    1.1943   -2.6588 H   0  0  0  0  0  0  0  0  0  0  0  0
    4.8491    0.2780   -1.3079 H   0  0  0  0  0  0  0  0  0  0  0  0
    4.9304   -0.3797   -2.9521 H   0  0  0  0  0  0  0  0  0  0  0  0
    3.1268   -1.4891   -1.6203 H   0  0  0  0  0  0  0  0  0  0  0  0
    2.4487   -0.5813   -3.0077 H   0  0  0  0  0  0  0  0  0  0  0  0
    3.1159    0.7279    2.7955 H   0  0  0  0  0  0  0  0  0  0  0  0
    3.6428   -0.9626    2.5876 H   0  0  0  0  0  0  0  0  0  0  0  0
    5.3805    1.5098    2.0784 H   0  0  0  0  0  0  0  0  0  0  0  0
    5.4997    0.4457    3.4883 H   0  0  0  0  0  0  0  0  0  0  0  0
    5.9002   -0.1691    1.8766 H   0  0  0  0  0  0  0  0  0  0  0  0
   -0.3481   -3.0890   -0.2328 H   0  0  0  0  0  0  0  0  0  0  0  0
   -0.1236   -1.4933   -1.0418 H   0  0  0  0  0  0  0  0  0  0  0  0
   -1.7443    2.4983    0.6009 H   0  0  0  0  0  0  0  0  0  0  0  0
   -3.4545    2.9235    0.8902 H   0  0  0  0  0  0  0  0  0  0  0  0
   -3.4197    1.4628    2.9414 H   0  0  0  0  0  0  0  0  0  0  0  0
   -1.6929    1.1648    2.6768 H   0  0  0  0  0  0  0  0  0  0  0  0
   -2.2530    2.7971    3.0431 H   0  0  0  0  0  0  0  0  0  0  0  0
   -3.2973   -0.6723   -3.0426 H   0  0  0  0  0  0  0  0  0  0  0  0
   -4.5863   -1.7586   -2.4362 H   0  0  0  0  0  0  0  0  0  0  0  0
   -4.4428    1.2832   -2.0949 H   0  0  0  0  0  0  0  0  0  0  0  0
   -5.5629    0.4124   -3.1543 H   0  0  0  0  0  0  0  0  0  0  0  0
   -5.6982    0.2535   -1.3918 H   0  0  0  0  0  0  0  0  0  0  0  0
  1  2  1  0  0  0  0
  2  3  1  0  0  0  0
  3  4  2  0  0  0  0
  4  5  2  0  0  0  0
  4  6  2  0  0  0  0
  6  7  1  0  0  0  0
  7  8  1  0  0  0  0
  4  9  1  0  0  0  0
  9 10  1  0  0  0  0
 10 11  1  0  0  0  0
 11 12  1  0  0  0  0
 12 13  2  0  0  0  0
 12 14  2  0  0  0  0
 14 15  1  0  0  0  0
 15 16  1  0  0  0  0
 12 17  2  0  0  0  0
 17 18  1  0  0  0  0
 18 19  1  0  0  0  0
  1 20  1  0  0  0  0
  1 21  1  0  0  0  0
  1 22  1  0  0  0  0
  2 23  1  0  0  0  0
  2 24  1  0  0  0  0
  7 25  1  0  0  0  0
  7 26  1  0  0  0  0
  8 27  1  0  0  0  0
  8 28  1  0  0  0  0
  8 29  1  0  0  0  0
 10 30  1  0  0  0  0
 10 31  1  0  0  0  0
 15 32  1  0  0  0  0
 15 33  1  0  0  0  0
 16 34  1  0  0  0  0
 16 35  1  0  0  0  0
 16 36  1  0  0  0  0
 18 37  1  0  0  0  0
 18 38  1  0  0  0  0
 19 39  1  0  0  0  0
 19 40  1  0  0  0  0
 19 41  1  0  0  0  0
M  END
