 xtb: 6.7.1 (edcfbbe)
          04092505203D

 41 40  0     0  0            999 V2000
    4.0941   -1.6501   -2.2892 C   0  0  0  0  0  0  0  0  0  0  0  0
    4.3380   -1.6849   -0.7945 C   0  0  0  0  0  0  0  0  0  0  0  0
    3.1129   -1.5992   -0.0458 O   0  0  0  0  0  0  0  0  0  0  0  0
    2.2196   -0.2833   -0.0144 P   0  0  0  0  0  0  0  0  0  0  0  0
    3.2407    1.3924    0.0624 S   0  0  0  0  0  0  0  0  0  0  0  0
    1.2748   -0.5908    1.2189 O   0  0  0  0  0  0  0  0  0  0  0  0
    1.6349   -0.2528    2.5793 C   0  0  0  0  0  0  0  0  0  0  0  0
    0.3799    0.1740    3.3123 C   0  0  0  0  0  0  0  0  0  0  0  0
    0.8380   -0.5258   -1.5896 S   0  0  0  0  0  0  0  0  0  0  0  0
    0.2837    1.2018   -1.6424 C   0  0  0  0  0  0  0  0  0  0  0  0
   -0.5586    1.7254   -0.1349 S   0  0  0  0  0  0  0  0  0  0  0  0
   -2.2882    0.4761   -0.3413 P   0  0  0  0  0  0  0  0  0  0  0  0
   -2.7902   -0.0081   -2.1653 S   0  0  0  0  0  0  0  0  0  0  0  0
   -3.4085    1.3140    0.3774 O   0  0  0  0  0  0  0  0  0  0  0  0
   -3.2756    2.0128    1.6392 C   0  0  0  0  0  0  0  0  0  0  0  0
   -3.5014    1.0879    2.8166 C   0  0  0  0  0  0  0  0  0  0  0  0
   -2.0499   -0.7529    0.6449 O   0  0  0  0  0  0  0  0  0  0  0  0
   -1.6463   -2.0703    0.2377 C   0  0  0  0  0  0  0  0  0  0  0  0
   -2.6106   -3.0792    0.8300 C   0  0  0  0  0  0  0  0  0  0  0  0
    3.7131   -0.6722   -2.5816 H   0  0  0  0  0  0  0  0  0  0  0  0
    5.0278   -1.8335   -2.8110 H   0  0  0  0  0  0  0  0  0  0  0  0
    3.3665   -2.4068   -2.5720 H   0  0  0  0  0  0  0  0  0  0  0  0
    4.9860   -0.8567   -0.4906 H   0  0  0  0  0  0  0  0  0  0  0  0
    4.7726   -2.6339   -0.4779 H   0  0  0  0  0  0  0  0  0  0  0  0
    2.0820   -1.1428    3.0275 H   0  0  0  0  0  0  0  0  0  0  0  0
    2.3756    0.5537    2.5566 H   0  0  0  0  0  0  0  0  0  0  0  0
   -0.3587   -0.6220    3.2760 H   0  0  0  0  0  0  0  0  0  0  0  0
    0.6266    0.3899    4.3466 H   0  0  0  0  0  0  0  0  0  0  0  0
   -0.0359    1.0653    2.8488 H   0  0  0  0  0  0  0  0  0  0  0  0
   -0.3961    1.2782   -2.4906 H   0  0  0  0  0  0  0  0  0  0  0  0
    1.1452    1.8589   -1.7564 H   0  0  0  0  0  0  0  0  0  0  0  0
   -2.2861    2.4767    1.6784 H   0  0  0  0  0  0  0  0  0  0  0  0
   -4.0412    2.7887    1.5865 H   0  0  0  0  0  0  0  0  0  0  0  0
   -4.4769    0.6162    2.7371 H   0  0  0  0  0  0  0  0  0  0  0  0
   -2.7381    0.3157    2.8414 H   0  0  0  0  0  0  0  0  0  0  0  0
   -3.4556    1.6658    3.7344 H   0  0  0  0  0  0  0  0  0  0  0  0
   -1.6464   -2.1250   -0.8562 H   0  0  0  0  0  0  0  0  0  0  0  0
   -0.6280   -2.2216    0.6053 H   0  0  0  0  0  0  0  0  0  0  0  0
   -3.6104   -2.9102    0.4381 H   0  0  0  0  0  0  0  0  0  0  0  0
   -2.2867   -4.0793    0.5609 H   0  0  0  0  0  0  0  0  0  0  0  0
   -2.6351   -2.9873    1.9120 H   0  0  0  0  0  0  0  0  0  0  0  0
  1  2  1  0  0  0  0
  2  3  1  0  0  0  0
  3  4  2  0  0  0  0
  4  5  2  0  0  0  0
  4  6  2  0  0  0  0
  6  7  1  0  0  0  0
  7  8  1  0  0  0  0
  4  9  1  0  0  0  0
  9 10  1  0  0  0  0
 10 11  1  0  0  0  0
 11 12  1  0  0  0  0
 12 13  2  0  0  0  0
 12 14  2  0  0  0  0
 14 15  1  0  0  0  0
 15 16  1  0  0  0  0
 12 17  2  0  0  0  0
 17 18  1  0  0  0  0
 18 19  1  0  0  0  0
  1 20  1  0  0  0  0
  1 21  1  0  0  0  0
  1 22  1  0  0  0  0
  2 23  1  0  0  0  0
  2 24  1  0  0  0  0
  7 25  1  0  0  0  0
  7 26  1  0  0  0  0
  8 27  1  0  0  0  0
  8 28  1  0  0  0  0
  8 29  1  0  0  0  0
 10 30  1  0  0  0  0
 10 31  1  0  0  0  0
 15 32  1  0  0  0  0
 15 33  1  0  0  0  0
 16 34  1  0  0  0  0
 16 35  1  0  0  0  0
 16 36  1  0  0  0  0
 18 37  1  0  0  0  0
 18 38  1  0  0  0  0
 19 39  1  0  0  0  0
 19 40  1  0  0  0  0
 19 41  1  0  0  0  0
M  END
