 xtb: 6.7.1 (edcfbbe)
          04092505213D

 41 40  0     0  0            999 V2000
    4.4416    0.4085   -2.0382 C   0  0  0  0  0  0  0  0  0  0  0  0
    4.5752   -0.0446   -0.5983 C   0  0  0  0  0  0  0  0  0  0  0  0
    3.3385   -0.5597   -0.0829 O   0  0  0  0  0  0  0  0  0  0  0  0
    2.0836    0.3891    0.2096 P   0  0  0  0  0  0  0  0  0  0  0  0
    2.5552    2.1486    0.9307 S   0  0  0  0  0  0  0  0  0  0  0  0
    1.2182   -0.5473    1.1420 O   0  0  0  0  0  0  0  0  0  0  0  0
    1.6223   -0.8182    2.5048 C   0  0  0  0  0  0  0  0  0  0  0  0
    0.3967   -1.2813    3.2639 C   0  0  0  0  0  0  0  0  0  0  0  0
    0.8990    0.3850   -1.5369 S   0  0  0  0  0  0  0  0  0  0  0  0
    0.4193   -1.3615   -1.6262 C   0  0  0  0  0  0  0  0  0  0  0  0
   -0.8650   -1.8794   -0.4435 S   0  0  0  0  0  0  0  0  0  0  0  0
   -2.1178   -0.1920   -0.5225 P   0  0  0  0  0  0  0  0  0  0  0  0
   -2.5498    0.5736   -2.2667 S   0  0  0  0  0  0  0  0  0  0  0  0
   -1.3503    0.7756    0.5091 O   0  0  0  0  0  0  0  0  0  0  0  0
   -1.4295    2.2051    0.4025 C   0  0  0  0  0  0  0  0  0  0  0  0
   -2.7700    2.7199    0.8842 C   0  0  0  0  0  0  0  0  0  0  0  0
   -3.4367   -0.6567    0.2221 O   0  0  0  0  0  0  0  0  0  0  0  0
   -3.4591   -1.1883    1.5712 C   0  0  0  0  0  0  0  0  0  0  0  0
   -3.5603   -2.7002    1.5524 C   0  0  0  0  0  0  0  0  0  0  0  0
    3.7465    1.2461   -2.0995 H   0  0  0  0  0  0  0  0  0  0  0  0
    5.4108    0.7291   -2.4063 H   0  0  0  0  0  0  0  0  0  0  0  0
    4.0698   -0.4007   -2.6614 H   0  0  0  0  0  0  0  0  0  0  0  0
    4.8938    0.7881    0.0370 H   0  0  0  0  0  0  0  0  0  0  0  0
    5.2727   -0.8773   -0.4983 H   0  0  0  0  0  0  0  0  0  0  0  0
    2.3945   -1.5902    2.4776 H   0  0  0  0  0  0  0  0  0  0  0  0
    2.0423    0.0986    2.9328 H   0  0  0  0  0  0  0  0  0  0  0  0
    0.6792   -1.5292    4.2817 H   0  0  0  0  0  0  0  0  0  0  0  0
   -0.3483   -0.4900    3.2819 H   0  0  0  0  0  0  0  0  0  0  0  0
   -0.0273   -2.1568    2.7797 H   0  0  0  0  0  0  0  0  0  0  0  0
    1.2825   -1.9954   -1.4366 H   0  0  0  0  0  0  0  0  0  0  0  0
    0.0403   -1.4964   -2.6378 H   0  0  0  0  0  0  0  0  0  0  0  0
   -0.6030    2.5731    1.0154 H   0  0  0  0  0  0  0  0  0  0  0  0
   -1.2575    2.4887   -0.6418 H   0  0  0  0  0  0  0  0  0  0  0  0
   -2.9455    2.4175    1.9134 H   0  0  0  0  0  0  0  0  0  0  0  0
   -2.7821    3.8032    0.8198 H   0  0  0  0  0  0  0  0  0  0  0  0
   -3.5624    2.3171    0.2533 H   0  0  0  0  0  0  0  0  0  0  0  0
   -2.5634   -0.8548    2.1003 H   0  0  0  0  0  0  0  0  0  0  0  0
   -4.3452   -0.7400    2.0243 H   0  0  0  0  0  0  0  0  0  0  0  0
   -4.4291   -3.0057    0.9762 H   0  0  0  0  0  0  0  0  0  0  0  0
   -2.6715   -3.1378    1.1028 H   0  0  0  0  0  0  0  0  0  0  0  0
   -3.6603   -3.0602    2.5715 H   0  0  0  0  0  0  0  0  0  0  0  0
  1  2  1  0  0  0  0
  2  3  1  0  0  0  0
  3  4  1  0  0  0  0
  4  5  2  0  0  0  0
  4  6  2  0  0  0  0
  6  7  1  0  0  0  0
  7  8  1  0  0  0  0
  4  9  1  0  0  0  0
  9 10  1  0  0  0  0
 10 11  1  0  0  0  0
 11 12  1  0  0  0  0
 12 13  2  0  0  0  0
 12 14  1  0  0  0  0
 14 15  1  0  0  0  0
 15 16  1  0  0  0  0
 12 17  2  0  0  0  0
 17 18  1  0  0  0  0
 18 19  1  0  0  0  0
  1 20  1  0  0  0  0
  1 21  1  0  0  0  0
  1 22  1  0  0  0  0
  2 23  1  0  0  0  0
  2 24  1  0  0  0  0
  7 25  1  0  0  0  0
  7 26  1  0  0  0  0
  8 27  1  0  0  0  0
  8 28  1  0  0  0  0
  8 29  1  0  0  0  0
 10 30  1  0  0  0  0
 10 31  1  0  0  0  0
 15 32  1  0  0  0  0
 15 33  1  0  0  0  0
 16 34  1  0  0  0  0
 16 35  1  0  0  0  0
 16 36  1  0  0  0  0
 18 37  1  0  0  0  0
 18 38  1  0  0  0  0
 19 39  1  0  0  0  0
 19 40  1  0  0  0  0
 19 41  1  0  0  0  0
M  END
