 xtb: 6.7.1 (edcfbbe)
          04092505203D

 41 40  0     0  0            999 V2000
    3.0036    0.1856    3.3325 C   0  0  0  0  0  0  0  0  0  0  0  0
    1.6837   -0.2793    2.7550 C   0  0  0  0  0  0  0  0  0  0  0  0
    1.4383    0.3276    1.4713 O   0  0  0  0  0  0  0  0  0  0  0  0
    2.2385   -0.0985    0.1712 P   0  0  0  0  0  0  0  0  0  0  0  0
    2.8869   -1.9535    0.2057 S   0  0  0  0  0  0  0  0  0  0  0  0
    3.3137    1.0675    0.0956 O   0  0  0  0  0  0  0  0  0  0  0  0
    4.0240    1.4809   -1.0852 C   0  0  0  0  0  0  0  0  0  0  0  0
    4.6955    0.3294   -1.8045 C   0  0  0  0  0  0  0  0  0  0  0  0
    0.8717    0.3862   -1.3741 S   0  0  0  0  0  0  0  0  0  0  0  0
   -0.0511   -1.1691   -1.2940 C   0  0  0  0  0  0  0  0  0  0  0  0
   -1.1033   -1.2905    0.1719 S   0  0  0  0  0  0  0  0  0  0  0  0
   -2.4853    0.2240   -0.4312 P   0  0  0  0  0  0  0  0  0  0  0  0
   -2.8950    0.2913   -2.3399 S   0  0  0  0  0  0  0  0  0  0  0  0
   -1.8833    1.5831    0.0946 O   0  0  0  0  0  0  0  0  0  0  0  0
   -1.6445    1.8489    1.4999 C   0  0  0  0  0  0  0  0  0  0  0  0
   -0.6376    2.9760    1.5925 C   0  0  0  0  0  0  0  0  0  0  0  0
   -3.7200    0.0170    0.5499 O   0  0  0  0  0  0  0  0  0  0  0  0
   -4.8155   -0.8680    0.2489 C   0  0  0  0  0  0  0  0  0  0  0  0
   -4.3876   -2.3198    0.1925 C   0  0  0  0  0  0  0  0  0  0  0  0
    3.8183   -0.1430    2.6879 H   0  0  0  0  0  0  0  0  0  0  0  0
    3.0256    1.2699    3.3980 H   0  0  0  0  0  0  0  0  0  0  0  0
    3.1384   -0.2423    4.3208 H   0  0  0  0  0  0  0  0  0  0  0  0
    0.8378    0.0351    3.3674 H   0  0  0  0  0  0  0  0  0  0  0  0
    1.6719   -1.3677    2.6364 H   0  0  0  0  0  0  0  0  0  0  0  0
    3.3167    1.9896   -1.7466 H   0  0  0  0  0  0  0  0  0  0  0  0
    4.7563    2.1964   -0.7064 H   0  0  0  0  0  0  0  0  0  0  0  0
    5.3433   -0.2185   -1.1242 H   0  0  0  0  0  0  0  0  0  0  0  0
    3.9460   -0.3574   -2.1963 H   0  0  0  0  0  0  0  0  0  0  0  0
    5.2854    0.7150   -2.6298 H   0  0  0  0  0  0  0  0  0  0  0  0
    0.6484   -2.0049   -1.2522 H   0  0  0  0  0  0  0  0  0  0  0  0
   -0.6730   -1.2095   -2.1884 H   0  0  0  0  0  0  0  0  0  0  0  0
   -2.6003    2.1206    1.9518 H   0  0  0  0  0  0  0  0  0  0  0  0
   -1.2700    0.9339    1.9686 H   0  0  0  0  0  0  0  0  0  0  0  0
   -0.9990    3.8403    1.0428 H   0  0  0  0  0  0  0  0  0  0  0  0
   -0.4960    3.2432    2.6348 H   0  0  0  0  0  0  0  0  0  0  0  0
    0.3142    2.6646    1.1691 H   0  0  0  0  0  0  0  0  0  0  0  0
   -5.5224   -0.6870    1.0598 H   0  0  0  0  0  0  0  0  0  0  0  0
   -5.2538   -0.5593   -0.7048 H   0  0  0  0  0  0  0  0  0  0  0  0
   -3.7380   -2.4839   -0.6659 H   0  0  0  0  0  0  0  0  0  0  0  0
   -3.8500   -2.5934    1.0970 H   0  0  0  0  0  0  0  0  0  0  0  0
   -5.2669   -2.9477    0.0912 H   0  0  0  0  0  0  0  0  0  0  0  0
  1  2  1  0  0  0  0
  2  3  1  0  0  0  0
  3  4  2  0  0  0  0
  4  5  2  0  0  0  0
  4  6  2  0  0  0  0
  6  7  1  0  0  0  0
  7  8  1  0  0  0  0
  4  9  1  0  0  0  0
  9 10  1  0  0  0  0
 10 11  1  0  0  0  0
 11 12  1  0  0  0  0
 12 13  2  0  0  0  0
 12 14  2  0  0  0  0
 14 15  1  0  0  0  0
 15 16  1  0  0  0  0
 12 17  2  0  0  0  0
 17 18  1  0  0  0  0
 18 19  1  0  0  0  0
  1 20  1  0  0  0  0
  1 21  1  0  0  0  0
  1 22  1  0  0  0  0
  2 23  1  0  0  0  0
  2 24  1  0  0  0  0
  7 25  1  0  0  0  0
  7 26  1  0  0  0  0
  8 27  1  0  0  0  0
  8 28  1  0  0  0  0
  8 29  1  0  0  0  0
 10 30  1  0  0  0  0
 10 31  1  0  0  0  0
 15 32  1  0  0  0  0
 15 33  1  0  0  0  0
 16 34  1  0  0  0  0
 16 35  1  0  0  0  0
 16 36  1  0  0  0  0
 18 37  1  0  0  0  0
 18 38  1  0  0  0  0
 19 39  1  0  0  0  0
 19 40  1  0  0  0  0
 19 41  1  0  0  0  0
M  END
