 xtb: 6.7.1 (edcfbbe)
          04092505213D

 41 40  0     0  0            999 V2000
    2.1113   -1.5977    2.3626 C   0  0  0  0  0  0  0  0  0  0  0  0
    2.1930   -0.1030    2.1265 C   0  0  0  0  0  0  0  0  0  0  0  0
    1.6070    0.2769    0.8680 O   0  0  0  0  0  0  0  0  0  0  0  0
    2.3150   -0.1048   -0.5148 P   0  0  0  0  0  0  0  0  0  0  0  0
    4.2692    0.0029   -0.4739 S   0  0  0  0  0  0  0  0  0  0  0  0
    1.5787    0.8496   -1.5433 O   0  0  0  0  0  0  0  0  0  0  0  0
    2.0760    2.1646   -1.8570 C   0  0  0  0  0  0  0  0  0  0  0  0
    1.9090    3.1231   -0.6977 C   0  0  0  0  0  0  0  0  0  0  0  0
    1.4888   -1.9476   -1.1257 S   0  0  0  0  0  0  0  0  0  0  0  0
   -0.2764   -1.5325   -1.2418 C   0  0  0  0  0  0  0  0  0  0  0  0
   -1.0748   -1.3295    0.3763 S   0  0  0  0  0  0  0  0  0  0  0  0
   -2.2493    0.3984   -0.0457 P   0  0  0  0  0  0  0  0  0  0  0  0
   -1.5698    1.6056   -1.4268 S   0  0  0  0  0  0  0  0  0  0  0  0
   -2.5001    1.0358    1.3880 O   0  0  0  0  0  0  0  0  0  0  0  0
   -1.4301    1.5068    2.2335 C   0  0  0  0  0  0  0  0  0  0  0  0
   -1.3148    0.6094    3.4508 C   0  0  0  0  0  0  0  0  0  0  0  0
   -3.6940   -0.0997   -0.4261 O   0  0  0  0  0  0  0  0  0  0  0  0
   -4.4776   -0.9992    0.4012 C   0  0  0  0  0  0  0  0  0  0  0  0
   -4.5129   -2.3839   -0.2142 C   0  0  0  0  0  0  0  0  0  0  0  0
    2.7325   -2.1219    1.6364 H   0  0  0  0  0  0  0  0  0  0  0  0
    2.4718   -1.8225    3.3611 H   0  0  0  0  0  0  0  0  0  0  0  0
    1.0862   -1.9458    2.2600 H   0  0  0  0  0  0  0  0  0  0  0  0
    3.2366    0.2281    2.1314 H   0  0  0  0  0  0  0  0  0  0  0  0
    1.6208    0.4563    2.8671 H   0  0  0  0  0  0  0  0  0  0  0  0
    3.1294    2.0748   -2.1409 H   0  0  0  0  0  0  0  0  0  0  0  0
    1.4771    2.4688   -2.7168 H   0  0  0  0  0  0  0  0  0  0  0  0
    2.5171    2.7981    0.1451 H   0  0  0  0  0  0  0  0  0  0  0  0
    2.2270    4.1143   -1.0046 H   0  0  0  0  0  0  0  0  0  0  0  0
    0.8643    3.1582   -0.3974 H   0  0  0  0  0  0  0  0  0  0  0  0
   -0.7249   -2.3791   -1.7555 H   0  0  0  0  0  0  0  0  0  0  0  0
   -0.4001   -0.6068   -1.8077 H   0  0  0  0  0  0  0  0  0  0  0  0
   -0.4987    1.5312    1.6604 H   0  0  0  0  0  0  0  0  0  0  0  0
   -1.7055    2.5256    2.5136 H   0  0  0  0  0  0  0  0  0  0  0  0
   -0.5672    1.0137    4.1258 H   0  0  0  0  0  0  0  0  0  0  0  0
   -2.2699    0.5662    3.9667 H   0  0  0  0  0  0  0  0  0  0  0  0
   -1.0285   -0.3967    3.1536 H   0  0  0  0  0  0  0  0  0  0  0  0
   -4.0559   -1.0201    1.4076 H   0  0  0  0  0  0  0  0  0  0  0  0
   -5.4719   -0.5512    0.4285 H   0  0  0  0  0  0  0  0  0  0  0  0
   -4.8487   -2.3238   -1.2459 H   0  0  0  0  0  0  0  0  0  0  0  0
   -3.5269   -2.8410   -0.1882 H   0  0  0  0  0  0  0  0  0  0  0  0
   -5.2030   -3.0032    0.3498 H   0  0  0  0  0  0  0  0  0  0  0  0
  1  2  1  0  0  0  0
  2  3  1  0  0  0  0
  3  4  1  0  0  0  0
  4  5  2  0  0  0  0
  4  6  2  0  0  0  0
  6  7  1  0  0  0  0
  7  8  1  0  0  0  0
  4  9  1  0  0  0  0
  9 10  1  0  0  0  0
 10 11  1  0  0  0  0
 11 12  1  0  0  0  0
 12 13  2  0  0  0  0
 12 14  2  0  0  0  0
 14 15  1  0  0  0  0
 15 16  1  0  0  0  0
 12 17  2  0  0  0  0
 17 18  1  0  0  0  0
 18 19  1  0  0  0  0
  1 20  1  0  0  0  0
  1 21  1  0  0  0  0
  1 22  1  0  0  0  0
  2 23  1  0  0  0  0
  2 24  1  0  0  0  0
  7 25  1  0  0  0  0
  7 26  1  0  0  0  0
  8 27  1  0  0  0  0
  8 28  1  0  0  0  0
  8 29  1  0  0  0  0
 10 30  1  0  0  0  0
 10 31  1  0  0  0  0
 15 32  1  0  0  0  0
 15 33  1  0  0  0  0
 16 34  1  0  0  0  0
 16 35  1  0  0  0  0
 16 36  1  0  0  0  0
 18 37  1  0  0  0  0
 18 38  1  0  0  0  0
 19 39  1  0  0  0  0
 19 40  1  0  0  0  0
 19 41  1  0  0  0  0
M  END
