 xtb: 6.7.1 (edcfbbe)
          04092505213D

 41 40  0     0  0            999 V2000
    3.2412   -2.3847   -1.7021 C   0  0  0  0  0  0  0  0  0  0  0  0
    3.6870   -0.9394   -1.6026 C   0  0  0  0  0  0  0  0  0  0  0  0
    2.5846   -0.0533   -1.2815 O   0  0  0  0  0  0  0  0  0  0  0  0
    2.0478    0.3040    0.1550 P   0  0  0  0  0  0  0  0  0  0  0  0
    0.9793    1.9513    0.0374 S   0  0  0  0  0  0  0  0  0  0  0  0
    3.4003    0.4471    0.9782 O   0  0  0  0  0  0  0  0  0  0  0  0
    3.5294    0.3909    2.4113 C   0  0  0  0  0  0  0  0  0  0  0  0
    2.5685    1.3162    3.1269 C   0  0  0  0  0  0  0  0  0  0  0  0
    1.2222   -1.4357    1.0768 S   0  0  0  0  0  0  0  0  0  0  0  0
   -0.0052   -2.0361   -0.1402 C   0  0  0  0  0  0  0  0  0  0  0  0
   -0.4515   -0.8415   -1.4257 S   0  0  0  0  0  0  0  0  0  0  0  0
   -1.9671    0.2005   -0.3806 P   0  0  0  0  0  0  0  0  0  0  0  0
   -2.5700    1.9047   -1.1307 S   0  0  0  0  0  0  0  0  0  0  0  0
   -1.3782    0.1657    1.0906 O   0  0  0  0  0  0  0  0  0  0  0  0
   -1.7626    1.1288    2.0907 C   0  0  0  0  0  0  0  0  0  0  0  0
   -3.2241    1.0043    2.4620 C   0  0  0  0  0  0  0  0  0  0  0  0
   -3.1308   -0.8846   -0.2208 O   0  0  0  0  0  0  0  0  0  0  0  0
   -4.1941   -1.0180   -1.1745 C   0  0  0  0  0  0  0  0  0  0  0  0
   -3.7133   -1.6111   -2.4841 C   0  0  0  0  0  0  0  0  0  0  0  0
    2.3756   -2.4583   -2.3563 H   0  0  0  0  0  0  0  0  0  0  0  0
    4.0530   -2.9720   -2.1200 H   0  0  0  0  0  0  0  0  0  0  0  0
    2.9919   -2.7804   -0.7207 H   0  0  0  0  0  0  0  0  0  0  0  0
    4.0318   -0.5650   -2.5679 H   0  0  0  0  0  0  0  0  0  0  0  0
    4.4706   -0.8098   -0.8545 H   0  0  0  0  0  0  0  0  0  0  0  0
    3.3733   -0.6450    2.7246 H   0  0  0  0  0  0  0  0  0  0  0  0
    4.5669    0.6815    2.5864 H   0  0  0  0  0  0  0  0  0  0  0  0
    2.6964    2.3397    2.7821 H   0  0  0  0  0  0  0  0  0  0  0  0
    1.5418    1.0146    2.9221 H   0  0  0  0  0  0  0  0  0  0  0  0
    2.7477    1.2683    4.1960 H   0  0  0  0  0  0  0  0  0  0  0  0
   -0.8944   -2.3182    0.4201 H   0  0  0  0  0  0  0  0  0  0  0  0
    0.4246   -2.8910   -0.6570 H   0  0  0  0  0  0  0  0  0  0  0  0
   -1.1092    0.8987    2.9343 H   0  0  0  0  0  0  0  0  0  0  0  0
   -1.5309    2.1295    1.7112 H   0  0  0  0  0  0  0  0  0  0  0  0
   -3.8449    1.2632    1.6049 H   0  0  0  0  0  0  0  0  0  0  0  0
   -3.4482   -0.0141    2.7684 H   0  0  0  0  0  0  0  0  0  0  0  0
   -3.4447    1.6871    3.2763 H   0  0  0  0  0  0  0  0  0  0  0  0
   -4.9157   -1.6677   -0.6774 H   0  0  0  0  0  0  0  0  0  0  0  0
   -4.6330   -0.0290   -1.3419 H   0  0  0  0  0  0  0  0  0  0  0  0
   -3.2133   -2.5606   -2.3126 H   0  0  0  0  0  0  0  0  0  0  0  0
   -4.5630   -1.7638   -3.1417 H   0  0  0  0  0  0  0  0  0  0  0  0
   -3.0142   -0.9268   -2.9651 H   0  0  0  0  0  0  0  0  0  0  0  0
  1  2  1  0  0  0  0
  2  3  1  0  0  0  0
  3  4  2  0  0  0  0
  4  5  2  0  0  0  0
  4  6  2  0  0  0  0
  6  7  1  0  0  0  0
  7  8  1  0  0  0  0
  4  9  1  0  0  0  0
  9 10  1  0  0  0  0
 10 11  1  0  0  0  0
 11 12  1  0  0  0  0
 12 13  2  0  0  0  0
 12 14  2  0  0  0  0
 14 15  1  0  0  0  0
 15 16  1  0  0  0  0
 12 17  2  0  0  0  0
 17 18  1  0  0  0  0
 18 19  1  0  0  0  0
  1 20  1  0  0  0  0
  1 21  1  0  0  0  0
  1 22  1  0  0  0  0
  2 23  1  0  0  0  0
  2 24  1  0  0  0  0
  7 25  1  0  0  0  0
  7 26  1  0  0  0  0
  8 27  1  0  0  0  0
  8 28  1  0  0  0  0
  8 29  1  0  0  0  0
 10 30  1  0  0  0  0
 10 31  1  0  0  0  0
 15 32  1  0  0  0  0
 15 33  1  0  0  0  0
 16 34  1  0  0  0  0
 16 35  1  0  0  0  0
 16 36  1  0  0  0  0
 18 37  1  0  0  0  0
 18 38  1  0  0  0  0
 19 39  1  0  0  0  0
 19 40  1  0  0  0  0
 19 41  1  0  0  0  0
M  END
