 xtb: 6.7.1 (edcfbbe)
          04092505203D

 41 40  0     0  0            999 V2000
    4.6774   -0.0986   -1.8712 C   0  0  0  0  0  0  0  0  0  0  0  0
    4.5115    0.9709   -0.8114 C   0  0  0  0  0  0  0  0  0  0  0  0
    3.6021    0.5741    0.2305 O   0  0  0  0  0  0  0  0  0  0  0  0
    2.0477    0.3560   -0.0199 P   0  0  0  0  0  0  0  0  0  0  0  0
    1.1945    1.6442   -1.2255 S   0  0  0  0  0  0  0  0  0  0  0  0
    1.4688    0.4455    1.4471 O   0  0  0  0  0  0  0  0  0  0  0  0
    2.0830   -0.1827    2.6092 C   0  0  0  0  0  0  0  0  0  0  0  0
    1.3855   -1.4780    2.9723 C   0  0  0  0  0  0  0  0  0  0  0  0
    1.9254   -1.6829   -0.6073 S   0  0  0  0  0  0  0  0  0  0  0  0
    0.1903   -1.6959   -1.1071 C   0  0  0  0  0  0  0  0  0  0  0  0
   -0.9599   -1.4739    0.2856 S   0  0  0  0  0  0  0  0  0  0  0  0
   -2.0364    0.2474   -0.3454 P   0  0  0  0  0  0  0  0  0  0  0  0
   -2.0670    0.5525   -2.2762 S   0  0  0  0  0  0  0  0  0  0  0  0
   -1.5087    1.4690    0.4972 O   0  0  0  0  0  0  0  0  0  0  0  0
   -1.5261    1.4913    1.9462 C   0  0  0  0  0  0  0  0  0  0  0  0
   -2.7142    2.2793    2.4563 C   0  0  0  0  0  0  0  0  0  0  0  0
   -3.4706    0.0160    0.3072 O   0  0  0  0  0  0  0  0  0  0  0  0
   -4.4335   -0.9005   -0.2498 C   0  0  0  0  0  0  0  0  0  0  0  0
   -4.4419   -2.2152    0.5061 C   0  0  0  0  0  0  0  0  0  0  0  0
    4.9196   -1.0538   -1.4122 H   0  0  0  0  0  0  0  0  0  0  0  0
    3.7556   -0.2047   -2.4412 H   0  0  0  0  0  0  0  0  0  0  0  0
    5.4752    0.1903   -2.5478 H   0  0  0  0  0  0  0  0  0  0  0  0
    4.1410    1.8996   -1.2561 H   0  0  0  0  0  0  0  0  0  0  0  0
    5.4450    1.1596   -0.2791 H   0  0  0  0  0  0  0  0  0  0  0  0
    3.1416   -0.3439    2.4027 H   0  0  0  0  0  0  0  0  0  0  0  0
    1.9717    0.5614    3.3995 H   0  0  0  0  0  0  0  0  0  0  0  0
    1.5159   -2.2228    2.1915 H   0  0  0  0  0  0  0  0  0  0  0  0
    1.8148   -1.8547    3.8953 H   0  0  0  0  0  0  0  0  0  0  0  0
    0.3218   -1.3107    3.1160 H   0  0  0  0  0  0  0  0  0  0  0  0
    0.0092   -2.6765   -1.5397 H   0  0  0  0  0  0  0  0  0  0  0  0
    0.0021   -0.9034   -1.8370 H   0  0  0  0  0  0  0  0  0  0  0  0
   -1.5434    0.4615    2.3139 H   0  0  0  0  0  0  0  0  0  0  0  0
   -0.5810    1.9643    2.2208 H   0  0  0  0  0  0  0  0  0  0  0  0
   -2.6610    2.3380    3.5390 H   0  0  0  0  0  0  0  0  0  0  0  0
   -2.6994    3.2830    2.0398 H   0  0  0  0  0  0  0  0  0  0  0  0
   -3.6413    1.7929    2.1654 H   0  0  0  0  0  0  0  0  0  0  0  0
   -5.3916   -0.3857   -0.1541 H   0  0  0  0  0  0  0  0  0  0  0  0
   -4.2093   -1.0448   -1.3116 H   0  0  0  0  0  0  0  0  0  0  0  0
   -4.6330   -2.0367    1.5603 H   0  0  0  0  0  0  0  0  0  0  0  0
   -5.2273   -2.8457    0.1022 H   0  0  0  0  0  0  0  0  0  0  0  0
   -3.4876   -2.7253    0.4040 H   0  0  0  0  0  0  0  0  0  0  0  0
  1  2  1  0  0  0  0
  2  3  1  0  0  0  0
  3  4  2  0  0  0  0
  4  5  2  0  0  0  0
  4  6  2  0  0  0  0
  6  7  1  0  0  0  0
  7  8  1  0  0  0  0
  4  9  1  0  0  0  0
  9 10  1  0  0  0  0
 10 11  1  0  0  0  0
 11 12  1  0  0  0  0
 12 13  2  0  0  0  0
 12 14  2  0  0  0  0
 14 15  1  0  0  0  0
 15 16  1  0  0  0  0
 12 17  2  0  0  0  0
 17 18  1  0  0  0  0
 18 19  1  0  0  0  0
  1 20  1  0  0  0  0
  1 21  1  0  0  0  0
  1 22  1  0  0  0  0
  2 23  1  0  0  0  0
  2 24  1  0  0  0  0
  7 25  1  0  0  0  0
  7 26  1  0  0  0  0
  8 27  1  0  0  0  0
  8 28  1  0  0  0  0
  8 29  1  0  0  0  0
 10 30  1  0  0  0  0
 10 31  1  0  0  0  0
 15 32  1  0  0  0  0
 15 33  1  0  0  0  0
 16 34  1  0  0  0  0
 16 35  1  0  0  0  0
 16 36  1  0  0  0  0
 18 37  1  0  0  0  0
 18 38  1  0  0  0  0
 19 39  1  0  0  0  0
 19 40  1  0  0  0  0
 19 41  1  0  0  0  0
M  END
