 xtb: 6.7.1 (edcfbbe)
          04092507313D

 38 37  0     0  0            999 V2000
    4.3885    0.9688   -1.3781 C   0  0  0  0  0  0  0  0  0  0  0  0
    4.1973   -0.3707   -2.0701 C   0  0  0  0  0  0  0  0  0  0  0  0
    2.8663   -0.8822   -1.8633 O   0  0  0  0  0  0  0  0  0  0  0  0
    2.6097   -1.5463   -0.7552 C   0  0  0  0  0  0  0  0  0  0  0  0
    3.4195   -1.7920    0.1095 O   0  0  0  0  0  0  0  0  0  0  0  0
    1.1568   -1.9909   -0.7081 C   0  0  0  0  0  0  0  0  0  0  0  0
    0.2494   -0.7649   -0.5868 C   0  0  0  0  0  0  0  0  0  0  0  0
    0.4080   -0.0874   -1.4290 H   0  0  0  0  0  0  0  0  0  0  0  0
    0.5406   -0.0434    0.7161 C   0  0  0  0  0  0  0  0  0  0  0  0
   -0.1612   -0.1492    1.7006 O   0  0  0  0  0  0  0  0  0  0  0  0
    1.6468    0.6491    0.6383 O   0  0  0  0  0  0  0  0  0  0  0  0
    2.0979    1.3381    1.8232 C   0  0  0  0  0  0  0  0  0  0  0  0
    2.7889    0.3823    2.7822 C   0  0  0  0  0  0  0  0  0  0  0  0
   -1.4960   -1.2915   -0.5623 S   0  0  0  0  0  0  0  0  0  0  0  0
   -2.3416    0.5395    0.0934 P   0  0  0  0  0  0  0  0  0  0  0  0
   -1.3019    2.1534   -0.2885 S   0  0  0  0  0  0  0  0  0  0  0  0
   -3.7673    0.5015   -0.6385 O   0  0  0  0  0  0  0  0  0  0  0  0
   -3.8783    0.6248   -2.0609 C   0  0  0  0  0  0  0  0  0  0  0  0
   -2.8179    0.4476    1.5934 O   0  0  0  0  0  0  0  0  0  0  0  0
   -3.4859   -0.7113    2.1312 C   0  0  0  0  0  0  0  0  0  0  0  0
    3.6171    1.6671   -1.6917 H   0  0  0  0  0  0  0  0  0  0  0  0
    4.3286    0.8425   -0.3003 H   0  0  0  0  0  0  0  0  0  0  0  0
    5.3635    1.3695   -1.6350 H   0  0  0  0  0  0  0  0  0  0  0  0
    4.9141   -1.1057   -1.6930 H   0  0  0  0  0  0  0  0  0  0  0  0
    4.2822   -0.2753   -3.1526 H   0  0  0  0  0  0  0  0  0  0  0  0
    1.0144   -2.6537    0.1461 H   0  0  0  0  0  0  0  0  0  0  0  0
    0.9127   -2.5187   -1.6303 H   0  0  0  0  0  0  0  0  0  0  0  0
    2.7820    2.0964    1.4426 H   0  0  0  0  0  0  0  0  0  0  0  0
    1.2321    1.8135    2.2935 H   0  0  0  0  0  0  0  0  0  0  0  0
    2.0651   -0.3032    3.2168 H   0  0  0  0  0  0  0  0  0  0  0  0
    3.5415   -0.1987    2.2534 H   0  0  0  0  0  0  0  0  0  0  0  0
    3.2612    0.9499    3.5767 H   0  0  0  0  0  0  0  0  0  0  0  0
   -3.2994    1.4820   -2.4080 H   0  0  0  0  0  0  0  0  0  0  0  0
   -4.9363    0.7758   -2.2588 H   0  0  0  0  0  0  0  0  0  0  0  0
   -3.5219   -0.2866   -2.5405 H   0  0  0  0  0  0  0  0  0  0  0  0
   -3.8389   -0.4026    3.1116 H   0  0  0  0  0  0  0  0  0  0  0  0
   -2.7707   -1.5284    2.2221 H   0  0  0  0  0  0  0  0  0  0  0  0
   -4.3171   -0.9986    1.4898 H   0  0  0  0  0  0  0  0  0  0  0  0
  1  2  1  0  0  0  0
  2  3  1  0  0  0  0
  3  4  1  0  0  0  0
  4  5  2  0  0  0  0
  4  6  1  0  0  0  0
  6  7  1  0  0  0  0
  7  8  1  0  0  0  0
  7  9  1  0  0  0  0
  9 10  2  0  0  0  0
  9 11  4  0  0  0  0
 11 12  1  0  0  0  0
 12 13  1  0  0  0  0
  7 14  1  0  0  0  0
 14 15  1  0  0  0  0
 15 16  2  0  0  0  0
 15 17  1  0  0  0  0
 17 18  1  0  0  0  0
 15 19  2  0  0  0  0
 19 20  1  0  0  0  0
  1 21  1  0  0  0  0
  1 22  1  0  0  0  0
  1 23  1  0  0  0  0
  2 24  1  0  0  0  0
  2 25  1  0  0  0  0
  6 26  1  0  0  0  0
  6 27  1  0  0  0  0
 12 28  1  0  0  0  0
 12 29  1  0  0  0  0
 13 30  1  0  0  0  0
 13 31  1  0  0  0  0
 13 32  1  0  0  0  0
 18 33  1  0  0  0  0
 18 34  1  0  0  0  0
 18 35  1  0  0  0  0
 20 36  1  0  0  0  0
 20 37  1  0  0  0  0
 20 38  1  0  0  0  0
M  END
