 xtb: 6.7.1 (edcfbbe)
          04092505203D

 41 40  0     0  0            999 V2000
    3.0319    0.0829    3.2378 C   0  0  0  0  0  0  0  0  0  0  0  0
    1.6696   -0.3064    2.7054 C   0  0  0  0  0  0  0  0  0  0  0  0
    1.4081    0.3166    1.4299 O   0  0  0  0  0  0  0  0  0  0  0  0
    2.1900   -0.1048    0.1224 P   0  0  0  0  0  0  0  0  0  0  0  0
    2.8048   -1.9701    0.0666 S   0  0  0  0  0  0  0  0  0  0  0  0
    3.2876    1.0403    0.0435 O   0  0  0  0  0  0  0  0  0  0  0  0
    4.2336    1.1435   -1.0388 C   0  0  0  0  0  0  0  0  0  0  0  0
    5.5076    0.3826   -0.7252 C   0  0  0  0  0  0  0  0  0  0  0  0
    0.8327    0.4465   -1.4088 S   0  0  0  0  0  0  0  0  0  0  0  0
   -0.1091   -1.1014   -1.3918 C   0  0  0  0  0  0  0  0  0  0  0  0
   -1.1447   -1.2745    0.0797 S   0  0  0  0  0  0  0  0  0  0  0  0
   -2.5340    0.2596   -0.4534 P   0  0  0  0  0  0  0  0  0  0  0  0
   -2.9644    0.3945   -2.3540 S   0  0  0  0  0  0  0  0  0  0  0  0
   -1.9271    1.5994    0.1136 O   0  0  0  0  0  0  0  0  0  0  0  0
   -1.6726    1.8160    1.5247 C   0  0  0  0  0  0  0  0  0  0  0  0
   -0.6729    2.9468    1.6452 C   0  0  0  0  0  0  0  0  0  0  0  0
   -3.7579    0.0160    0.5325 O   0  0  0  0  0  0  0  0  0  0  0  0
   -4.8551   -0.8602    0.2116 C   0  0  0  0  0  0  0  0  0  0  0  0
   -4.4260   -2.3088    0.1045 C   0  0  0  0  0  0  0  0  0  0  0  0
    3.1677   -0.3385    4.2287 H   0  0  0  0  0  0  0  0  0  0  0  0
    3.8065   -0.3058    2.5776 H   0  0  0  0  0  0  0  0  0  0  0  0
    3.1225    1.1647    3.2859 H   0  0  0  0  0  0  0  0  0  0  0  0
    0.8640    0.0531    3.3467 H   0  0  0  0  0  0  0  0  0  0  0  0
    1.5935   -1.3917    2.5850 H   0  0  0  0  0  0  0  0  0  0  0  0
    3.7707    0.7756   -1.9593 H   0  0  0  0  0  0  0  0  0  0  0  0
    4.4233    2.2144   -1.1323 H   0  0  0  0  0  0  0  0  0  0  0  0
    6.2171    0.5257   -1.5337 H   0  0  0  0  0  0  0  0  0  0  0  0
    5.9416    0.7465    0.2019 H   0  0  0  0  0  0  0  0  0  0  0  0
    5.2984   -0.6799   -0.6224 H   0  0  0  0  0  0  0  0  0  0  0  0
    0.5802   -1.9464   -1.3973 H   0  0  0  0  0  0  0  0  0  0  0  0
   -0.7416   -1.0929   -2.2797 H   0  0  0  0  0  0  0  0  0  0  0  0
   -2.6246    2.0638    1.9981 H   0  0  0  0  0  0  0  0  0  0  0  0
   -1.2857    0.8872    1.9548 H   0  0  0  0  0  0  0  0  0  0  0  0
   -0.5137    3.1725    2.6947 H   0  0  0  0  0  0  0  0  0  0  0  0
    0.2729    2.6612    1.1912 H   0  0  0  0  0  0  0  0  0  0  0  0
   -1.0511    3.8298    1.1382 H   0  0  0  0  0  0  0  0  0  0  0  0
   -5.5555   -0.7065    1.0337 H   0  0  0  0  0  0  0  0  0  0  0  0
   -5.3013   -0.5210   -0.7280 H   0  0  0  0  0  0  0  0  0  0  0  0
   -3.8796   -2.6105    0.9946 H   0  0  0  0  0  0  0  0  0  0  0  0
   -5.3056   -2.9343   -0.0087 H   0  0  0  0  0  0  0  0  0  0  0  0
   -3.7844   -2.4444   -0.7649 H   0  0  0  0  0  0  0  0  0  0  0  0
  1  2  1  0  0  0  0
  2  3  1  0  0  0  0
  3  4  2  0  0  0  0
  4  5  2  0  0  0  0
  4  6  2  0  0  0  0
  6  7  1  0  0  0  0
  7  8  1  0  0  0  0
  4  9  1  0  0  0  0
  9 10  1  0  0  0  0
 10 11  1  0  0  0  0
 11 12  1  0  0  0  0
 12 13  2  0  0  0  0
 12 14  2  0  0  0  0
 14 15  1  0  0  0  0
 15 16  1  0  0  0  0
 12 17  2  0  0  0  0
 17 18  1  0  0  0  0
 18 19  1  0  0  0  0
  1 20  1  0  0  0  0
  1 21  1  0  0  0  0
  1 22  1  0  0  0  0
  2 23  1  0  0  0  0
  2 24  1  0  0  0  0
  7 25  1  0  0  0  0
  7 26  1  0  0  0  0
  8 27  1  0  0  0  0
  8 28  1  0  0  0  0
  8 29  1  0  0  0  0
 10 30  1  0  0  0  0
 10 31  1  0  0  0  0
 15 32  1  0  0  0  0
 15 33  1  0  0  0  0
 16 34  1  0  0  0  0
 16 35  1  0  0  0  0
 16 36  1  0  0  0  0
 18 37  1  0  0  0  0
 18 38  1  0  0  0  0
 19 39  1  0  0  0  0
 19 40  1  0  0  0  0
 19 41  1  0  0  0  0
M  END
