 xtb: 6.7.1 (edcfbbe)
          04092505213D

 41 40  0     0  0            999 V2000
    5.3571   -0.9050    0.7619 C   0  0  0  0  0  0  0  0  0  0  0  0
    4.2221   -1.5514   -0.0049 C   0  0  0  0  0  0  0  0  0  0  0  0
    3.6290   -0.6179   -0.9434 O   0  0  0  0  0  0  0  0  0  0  0  0
    2.3715    0.2743   -0.6246 P   0  0  0  0  0  0  0  0  0  0  0  0
    1.8876    1.3631   -2.1748 S   0  0  0  0  0  0  0  0  0  0  0  0
    2.8253    1.0551    0.6829 O   0  0  0  0  0  0  0  0  0  0  0  0
    2.0464    2.1098    1.2757 C   0  0  0  0  0  0  0  0  0  0  0  0
    2.9919    3.0218    2.0301 C   0  0  0  0  0  0  0  0  0  0  0  0
    0.9030   -1.0907    0.0949 S   0  0  0  0  0  0  0  0  0  0  0  0
   -0.1547   -1.1556   -1.3910 C   0  0  0  0  0  0  0  0  0  0  0  0
   -1.8570   -1.5739   -0.9922 S   0  0  0  0  0  0  0  0  0  0  0  0
   -2.4506    0.1918    0.0620 P   0  0  0  0  0  0  0  0  0  0  0  0
   -1.2020    1.6981   -0.0643 S   0  0  0  0  0  0  0  0  0  0  0  0
   -2.8108   -0.2621    1.5435 O   0  0  0  0  0  0  0  0  0  0  0  0
   -1.8278   -0.5162    2.5633 C   0  0  0  0  0  0  0  0  0  0  0  0
   -1.5028   -1.9943    2.6550 C   0  0  0  0  0  0  0  0  0  0  0  0
   -3.8668    0.5685   -0.5083 O   0  0  0  0  0  0  0  0  0  0  0  0
   -5.1091   -0.1059   -0.1820 C   0  0  0  0  0  0  0  0  0  0  0  0
   -5.1044   -1.5620   -0.5938 C   0  0  0  0  0  0  0  0  0  0  0  0
    6.0943   -0.5074    0.0698 H   0  0  0  0  0  0  0  0  0  0  0  0
    4.9826   -0.0926    1.3783 H   0  0  0  0  0  0  0  0  0  0  0  0
    5.8257   -1.6512    1.3960 H   0  0  0  0  0  0  0  0  0  0  0  0
    3.4422   -1.9161    0.6701 H   0  0  0  0  0  0  0  0  0  0  0  0
    4.5809   -2.3687   -0.6329 H   0  0  0  0  0  0  0  0  0  0  0  0
    1.5101    2.6476    0.4868 H   0  0  0  0  0  0  0  0  0  0  0  0
    1.3108    1.6539    1.9434 H   0  0  0  0  0  0  0  0  0  0  0  0
    3.5161    2.4613    2.7987 H   0  0  0  0  0  0  0  0  0  0  0  0
    3.7182    3.4518    1.3459 H   0  0  0  0  0  0  0  0  0  0  0  0
    2.4198    3.8195    2.4919 H   0  0  0  0  0  0  0  0  0  0  0  0
    0.2018   -1.9430   -2.0509 H   0  0  0  0  0  0  0  0  0  0  0  0
   -0.1079   -0.1784   -1.8789 H   0  0  0  0  0  0  0  0  0  0  0  0
   -0.9329    0.0769    2.3495 H   0  0  0  0  0  0  0  0  0  0  0  0
   -2.2905   -0.1545    3.4835 H   0  0  0  0  0  0  0  0  0  0  0  0
   -2.4152   -2.5676    2.7917 H   0  0  0  0  0  0  0  0  0  0  0  0
   -0.9997   -2.3337    1.7523 H   0  0  0  0  0  0  0  0  0  0  0  0
   -0.8454   -2.1584    3.5023 H   0  0  0  0  0  0  0  0  0  0  0  0
   -5.2791   -0.0015    0.8909 H   0  0  0  0  0  0  0  0  0  0  0  0
   -5.8534    0.4683   -0.7356 H   0  0  0  0  0  0  0  0  0  0  0  0
   -4.8813   -1.6581   -1.6532 H   0  0  0  0  0  0  0  0  0  0  0  0
   -4.3540   -2.1126   -0.0291 H   0  0  0  0  0  0  0  0  0  0  0  0
   -6.0821   -1.9894   -0.3936 H   0  0  0  0  0  0  0  0  0  0  0  0
  1  2  1  0  0  0  0
  2  3  1  0  0  0  0
  3  4  2  0  0  0  0
  4  5  2  0  0  0  0
  4  6  2  0  0  0  0
  6  7  1  0  0  0  0
  7  8  1  0  0  0  0
  4  9  1  0  0  0  0
  9 10  1  0  0  0  0
 10 11  1  0  0  0  0
 11 12  1  0  0  0  0
 12 13  2  0  0  0  0
 12 14  2  0  0  0  0
 14 15  1  0  0  0  0
 15 16  1  0  0  0  0
 12 17  2  0  0  0  0
 17 18  1  0  0  0  0
 18 19  1  0  0  0  0
  1 20  1  0  0  0  0
  1 21  1  0  0  0  0
  1 22  1  0  0  0  0
  2 23  1  0  0  0  0
  2 24  1  0  0  0  0
  7 25  1  0  0  0  0
  7 26  1  0  0  0  0
  8 27  1  0  0  0  0
  8 28  1  0  0  0  0
  8 29  1  0  0  0  0
 10 30  1  0  0  0  0
 10 31  1  0  0  0  0
 15 32  1  0  0  0  0
 15 33  1  0  0  0  0
 16 34  1  0  0  0  0
 16 35  1  0  0  0  0
 16 36  1  0  0  0  0
 18 37  1  0  0  0  0
 18 38  1  0  0  0  0
 19 39  1  0  0  0  0
 19 40  1  0  0  0  0
 19 41  1  0  0  0  0
M  END
