 xtb: 6.7.1 (edcfbbe)
          04092505213D

 41 40  0     0  0            999 V2000
    2.3808    2.3064   -2.5071 C   0  0  0  0  0  0  0  0  0  0  0  0
    2.6601    1.0932   -1.6469 C   0  0  0  0  0  0  0  0  0  0  0  0
    1.8992    1.2425   -0.4200 O   0  0  0  0  0  0  0  0  0  0  0  0
    1.9975    0.2196    0.7755 P   0  0  0  0  0  0  0  0  0  0  0  0
    1.0799    0.8603    2.3769 S   0  0  0  0  0  0  0  0  0  0  0  0
    3.5760    0.0601    0.9151 O   0  0  0  0  0  0  0  0  0  0  0  0
    4.2050   -0.4386    2.1097 C   0  0  0  0  0  0  0  0  0  0  0  0
    3.8321   -1.8760    2.4085 C   0  0  0  0  0  0  0  0  0  0  0  0
    1.3681   -1.6736    0.0028 S   0  0  0  0  0  0  0  0  0  0  0  0
   -0.0928   -1.9600    1.0429 C   0  0  0  0  0  0  0  0  0  0  0  0
   -1.6496   -2.1069    0.1221 S   0  0  0  0  0  0  0  0  0  0  0  0
   -1.8093   -0.2313   -0.8273 P   0  0  0  0  0  0  0  0  0  0  0  0
   -0.6813    0.2380   -2.3480 S   0  0  0  0  0  0  0  0  0  0  0  0
   -1.6847    0.7212    0.4541 O   0  0  0  0  0  0  0  0  0  0  0  0
   -1.4184    2.1291    0.3200 C   0  0  0  0  0  0  0  0  0  0  0  0
   -2.5920    2.8687   -0.2856 C   0  0  0  0  0  0  0  0  0  0  0  0
   -3.3252   -0.2349   -1.2915 O   0  0  0  0  0  0  0  0  0  0  0  0
   -4.4281   -0.4842   -0.3836 C   0  0  0  0  0  0  0  0  0  0  0  0
   -5.6548    0.2095   -0.9394 C   0  0  0  0  0  0  0  0  0  0  0  0
    2.6247    3.2149   -1.9639 H   0  0  0  0  0  0  0  0  0  0  0  0
    2.9840    2.2472   -3.4068 H   0  0  0  0  0  0  0  0  0  0  0  0
    1.3301    2.3256   -2.7850 H   0  0  0  0  0  0  0  0  0  0  0  0
    3.7166    1.0147   -1.3852 H   0  0  0  0  0  0  0  0  0  0  0  0
    2.3311    0.1751   -2.1414 H   0  0  0  0  0  0  0  0  0  0  0  0
    5.2707   -0.3338    1.9014 H   0  0  0  0  0  0  0  0  0  0  0  0
    3.9225    0.2125    2.9425 H   0  0  0  0  0  0  0  0  0  0  0  0
    4.4356   -2.2352    3.2360 H   0  0  0  0  0  0  0  0  0  0  0  0
    2.7811   -1.9369    2.6874 H   0  0  0  0  0  0  0  0  0  0  0  0
    4.0042   -2.5025    1.5369 H   0  0  0  0  0  0  0  0  0  0  0  0
   -0.1710   -1.1487    1.7723 H   0  0  0  0  0  0  0  0  0  0  0  0
    0.0273   -2.9234    1.5329 H   0  0  0  0  0  0  0  0  0  0  0  0
   -1.2077    2.4544    1.3405 H   0  0  0  0  0  0  0  0  0  0  0  0
   -0.5197    2.2555   -0.2929 H   0  0  0  0  0  0  0  0  0  0  0  0
   -2.7750    2.5032   -1.2961 H   0  0  0  0  0  0  0  0  0  0  0  0
   -3.4840    2.7208    0.3180 H   0  0  0  0  0  0  0  0  0  0  0  0
   -2.3605    3.9283   -0.3300 H   0  0  0  0  0  0  0  0  0  0  0  0
   -4.5711   -1.5658   -0.3305 H   0  0  0  0  0  0  0  0  0  0  0  0
   -4.1638   -0.1063    0.6076 H   0  0  0  0  0  0  0  0  0  0  0  0
   -5.8613   -0.1542   -1.9419 H   0  0  0  0  0  0  0  0  0  0  0  0
   -6.5037   -0.0028   -0.2974 H   0  0  0  0  0  0  0  0  0  0  0  0
   -5.4972    1.2836   -0.9845 H   0  0  0  0  0  0  0  0  0  0  0  0
  1  2  1  0  0  0  0
  2  3  1  0  0  0  0
  3  4  2  0  0  0  0
  4  5  2  0  0  0  0
  4  6  2  0  0  0  0
  6  7  1  0  0  0  0
  7  8  1  0  0  0  0
  4  9  1  0  0  0  0
  9 10  1  0  0  0  0
 10 11  1  0  0  0  0
 11 12  1  0  0  0  0
 12 13  2  0  0  0  0
 12 14  1  0  0  0  0
 14 15  1  0  0  0  0
 15 16  1  0  0  0  0
 12 17  2  0  0  0  0
 17 18  1  0  0  0  0
 18 19  1  0  0  0  0
  1 20  1  0  0  0  0
  1 21  1  0  0  0  0
  1 22  1  0  0  0  0
  2 23  1  0  0  0  0
  2 24  1  0  0  0  0
  7 25  1  0  0  0  0
  7 26  1  0  0  0  0
  8 27  1  0  0  0  0
  8 28  1  0  0  0  0
  8 29  1  0  0  0  0
 10 30  1  0  0  0  0
 10 31  1  0  0  0  0
 15 32  1  0  0  0  0
 15 33  1  0  0  0  0
 16 34  1  0  0  0  0
 16 35  1  0  0  0  0
 16 36  1  0  0  0  0
 18 37  1  0  0  0  0
 18 38  1  0  0  0  0
 19 39  1  0  0  0  0
 19 40  1  0  0  0  0
 19 41  1  0  0  0  0
M  END
