 xtb: 6.7.1 (edcfbbe)
          04092505213D

 41 40  0     0  0            999 V2000
    2.9692   -0.4327   -2.3915 C   0  0  0  0  0  0  0  0  0  0  0  0
    1.6936    0.2289   -1.9184 C   0  0  0  0  0  0  0  0  0  0  0  0
    1.0945   -0.4928   -0.8238 O   0  0  0  0  0  0  0  0  0  0  0  0
    1.7800   -0.5221    0.6096 P   0  0  0  0  0  0  0  0  0  0  0  0
    2.8804    1.0299    1.1026 S   0  0  0  0  0  0  0  0  0  0  0  0
    2.5745   -1.8952    0.5346 O   0  0  0  0  0  0  0  0  0  0  0  0
    3.4661   -2.3149    1.5879 C   0  0  0  0  0  0  0  0  0  0  0  0
    4.4052   -3.3586    1.0178 C   0  0  0  0  0  0  0  0  0  0  0  0
    0.1838   -1.0391    1.8761 S   0  0  0  0  0  0  0  0  0  0  0  0
   -0.6056    0.5917    2.0950 C   0  0  0  0  0  0  0  0  0  0  0  0
   -0.5482    1.6708    0.6405 S   0  0  0  0  0  0  0  0  0  0  0  0
   -1.9633    0.7577   -0.6382 P   0  0  0  0  0  0  0  0  0  0  0  0
   -1.8312    1.2002   -2.5411 S   0  0  0  0  0  0  0  0  0  0  0  0
   -3.4006    1.0560   -0.0017 O   0  0  0  0  0  0  0  0  0  0  0  0
   -4.1722    2.2101   -0.3664 C   0  0  0  0  0  0  0  0  0  0  0  0
   -3.5458    3.4932    0.1415 C   0  0  0  0  0  0  0  0  0  0  0  0
   -1.7858   -0.7585   -0.2376 O   0  0  0  0  0  0  0  0  0  0  0  0
   -2.3123   -1.8370   -1.0433 C   0  0  0  0  0  0  0  0  0  0  0  0
   -1.4613   -3.0640   -0.7892 C   0  0  0  0  0  0  0  0  0  0  0  0
    3.7209   -0.3834   -1.6043 H   0  0  0  0  0  0  0  0  0  0  0  0
    2.7832   -1.4743   -2.6393 H   0  0  0  0  0  0  0  0  0  0  0  0
    3.3389    0.0896   -3.2682 H   0  0  0  0  0  0  0  0  0  0  0  0
    0.9220    0.2344   -2.6912 H   0  0  0  0  0  0  0  0  0  0  0  0
    1.8844    1.2576   -1.5923 H   0  0  0  0  0  0  0  0  0  0  0  0
    4.0116   -1.4377    1.9521 H   0  0  0  0  0  0  0  0  0  0  0  0
    2.8612   -2.7236    2.4015 H   0  0  0  0  0  0  0  0  0  0  0  0
    3.8338   -4.1927    0.6212 H   0  0  0  0  0  0  0  0  0  0  0  0
    5.0037   -2.9299    0.2189 H   0  0  0  0  0  0  0  0  0  0  0  0
    5.0619   -3.7133    1.8053 H   0  0  0  0  0  0  0  0  0  0  0  0
   -0.0763    1.1407    2.8718 H   0  0  0  0  0  0  0  0  0  0  0  0
   -1.6378    0.3980    2.3767 H   0  0  0  0  0  0  0  0  0  0  0  0
   -4.2628    2.2334   -1.4572 H   0  0  0  0  0  0  0  0  0  0  0  0
   -5.1491    2.0299    0.0843 H   0  0  0  0  0  0  0  0  0  0  0  0
   -3.3991    3.4471    1.2174 H   0  0  0  0  0  0  0  0  0  0  0  0
   -2.5785    3.6478   -0.3373 H   0  0  0  0  0  0  0  0  0  0  0  0
   -4.1943    4.3297   -0.0980 H   0  0  0  0  0  0  0  0  0  0  0  0
   -3.3509   -1.9980   -0.7453 H   0  0  0  0  0  0  0  0  0  0  0  0
   -2.2809   -1.5342   -2.0957 H   0  0  0  0  0  0  0  0  0  0  0  0
   -1.8310   -3.8862   -1.3932 H   0  0  0  0  0  0  0  0  0  0  0  0
   -0.4263   -2.8593   -1.0527 H   0  0  0  0  0  0  0  0  0  0  0  0
   -1.5037   -3.3351    0.2621 H   0  0  0  0  0  0  0  0  0  0  0  0
  1  2  1  0  0  0  0
  2  3  1  0  0  0  0
  3  4  1  0  0  0  0
  4  5  2  0  0  0  0
  4  6  2  0  0  0  0
  6  7  1  0  0  0  0
  7  8  1  0  0  0  0
  4  9  1  0  0  0  0
  9 10  1  0  0  0  0
 10 11  1  0  0  0  0
 11 12  1  0  0  0  0
 12 13  2  0  0  0  0
 12 14  1  0  0  0  0
 14 15  1  0  0  0  0
 15 16  1  0  0  0  0
 12 17  2  0  0  0  0
 17 18  1  0  0  0  0
 18 19  1  0  0  0  0
  1 20  1  0  0  0  0
  1 21  1  0  0  0  0
  1 22  1  0  0  0  0
  2 23  1  0  0  0  0
  2 24  1  0  0  0  0
  7 25  1  0  0  0  0
  7 26  1  0  0  0  0
  8 27  1  0  0  0  0
  8 28  1  0  0  0  0
  8 29  1  0  0  0  0
 10 30  1  0  0  0  0
 10 31  1  0  0  0  0
 15 32  1  0  0  0  0
 15 33  1  0  0  0  0
 16 34  1  0  0  0  0
 16 35  1  0  0  0  0
 16 36  1  0  0  0  0
 18 37  1  0  0  0  0
 18 38  1  0  0  0  0
 19 39  1  0  0  0  0
 19 40  1  0  0  0  0
 19 41  1  0  0  0  0
M  END
