 xtb: 6.7.1 (edcfbbe)
          04092505203D

 41 40  0     0  0            999 V2000
    4.2575   -0.7046   -1.9562 C   0  0  0  0  0  0  0  0  0  0  0  0
    4.3994   -0.4106   -0.4766 C   0  0  0  0  0  0  0  0  0  0  0  0
    3.2506   -0.8304    0.2767 O   0  0  0  0  0  0  0  0  0  0  0  0
    1.8335   -0.1036    0.1656 P   0  0  0  0  0  0  0  0  0  0  0  0
    2.0018    1.8419   -0.0771 S   0  0  0  0  0  0  0  0  0  0  0  0
    1.1221   -0.6896    1.4537 O   0  0  0  0  0  0  0  0  0  0  0  0
    1.7329   -0.7724    2.7571 C   0  0  0  0  0  0  0  0  0  0  0  0
    1.9944    0.5940    3.3573 C   0  0  0  0  0  0  0  0  0  0  0  0
    0.8387   -1.1488   -1.3737 S   0  0  0  0  0  0  0  0  0  0  0  0
   -0.0484    0.2131   -2.1783 C   0  0  0  0  0  0  0  0  0  0  0  0
   -1.8620    0.1530   -2.0177 S   0  0  0  0  0  0  0  0  0  0  0  0
   -2.0941    0.0868    0.0888 P   0  0  0  0  0  0  0  0  0  0  0  0
   -3.9003    0.4331    0.7562 S   0  0  0  0  0  0  0  0  0  0  0  0
   -0.9402    1.0337    0.6431 O   0  0  0  0  0  0  0  0  0  0  0  0
   -1.2386    2.3913    1.0237 C   0  0  0  0  0  0  0  0  0  0  0  0
   -1.5063    3.2775   -0.1759 C   0  0  0  0  0  0  0  0  0  0  0  0
   -1.4643   -1.2912    0.5651 O   0  0  0  0  0  0  0  0  0  0  0  0
   -2.2443   -2.4982    0.6289 C   0  0  0  0  0  0  0  0  0  0  0  0
   -2.5738   -3.0407   -0.7481 C   0  0  0  0  0  0  0  0  0  0  0  0
    3.9838   -1.7451   -2.1105 H   0  0  0  0  0  0  0  0  0  0  0  0
    3.4874   -0.0697   -2.3910 H   0  0  0  0  0  0  0  0  0  0  0  0
    5.2013   -0.5016   -2.4520 H   0  0  0  0  0  0  0  0  0  0  0  0
    4.5488    0.6614   -0.3115 H   0  0  0  0  0  0  0  0  0  0  0  0
    5.2226   -0.9721   -0.0325 H   0  0  0  0  0  0  0  0  0  0  0  0
    1.0016   -1.3304    3.3448 H   0  0  0  0  0  0  0  0  0  0  0  0
    2.6579   -1.3475    2.6714 H   0  0  0  0  0  0  0  0  0  0  0  0
    1.0708    1.1669    3.4019 H   0  0  0  0  0  0  0  0  0  0  0  0
    2.3927    0.4779    4.3605 H   0  0  0  0  0  0  0  0  0  0  0  0
    2.7144    1.1418    2.7505 H   0  0  0  0  0  0  0  0  0  0  0  0
    0.1276    0.1416   -3.2487 H   0  0  0  0  0  0  0  0  0  0  0  0
    0.3335    1.1559   -1.7781 H   0  0  0  0  0  0  0  0  0  0  0  0
   -2.1025    2.3780    1.6952 H   0  0  0  0  0  0  0  0  0  0  0  0
   -0.3485    2.7184    1.5639 H   0  0  0  0  0  0  0  0  0  0  0  0
   -0.6387    3.3009   -0.8313 H   0  0  0  0  0  0  0  0  0  0  0  0
   -2.3691    2.9068   -0.7289 H   0  0  0  0  0  0  0  0  0  0  0  0
   -1.7143    4.2853    0.1687 H   0  0  0  0  0  0  0  0  0  0  0  0
   -1.6112   -3.1873    1.1900 H   0  0  0  0  0  0  0  0  0  0  0  0
   -3.1593   -2.2893    1.1933 H   0  0  0  0  0  0  0  0  0  0  0  0
   -1.6657   -3.1533   -1.3363 H   0  0  0  0  0  0  0  0  0  0  0  0
   -3.0574   -4.0067   -0.6436 H   0  0  0  0  0  0  0  0  0  0  0  0
   -3.2497   -2.3617   -1.2669 H   0  0  0  0  0  0  0  0  0  0  0  0
  1  2  1  0  0  0  0
  2  3  1  0  0  0  0
  3  4  2  0  0  0  0
  4  5  2  0  0  0  0
  4  6  2  0  0  0  0
  6  7  1  0  0  0  0
  7  8  1  0  0  0  0
  4  9  1  0  0  0  0
  9 10  1  0  0  0  0
 10 11  1  0  0  0  0
 11 12  1  0  0  0  0
 12 13  2  0  0  0  0
 12 14  1  0  0  0  0
 14 15  1  0  0  0  0
 15 16  1  0  0  0  0
 12 17  2  0  0  0  0
 17 18  1  0  0  0  0
 18 19  1  0  0  0  0
  1 20  1  0  0  0  0
  1 21  1  0  0  0  0
  1 22  1  0  0  0  0
  2 23  1  0  0  0  0
  2 24  1  0  0  0  0
  7 25  1  0  0  0  0
  7 26  1  0  0  0  0
  8 27  1  0  0  0  0
  8 28  1  0  0  0  0
  8 29  1  0  0  0  0
 10 30  1  0  0  0  0
 10 31  1  0  0  0  0
 15 32  1  0  0  0  0
 15 33  1  0  0  0  0
 16 34  1  0  0  0  0
 16 35  1  0  0  0  0
 16 36  1  0  0  0  0
 18 37  1  0  0  0  0
 18 38  1  0  0  0  0
 19 39  1  0  0  0  0
 19 40  1  0  0  0  0
 19 41  1  0  0  0  0
M  END
