 xtb: 6.7.1 (edcfbbe)
          04092507313D

 38 37  0     0  0            999 V2000
    2.3721   -3.4972   -0.2609 C   0  0  0  0  0  0  0  0  0  0  0  0
    2.9664   -2.1486    0.1111 C   0  0  0  0  0  0  0  0  0  0  0  0
    2.1680   -1.0729   -0.4178 O   0  0  0  0  0  0  0  0  0  0  0  0
    2.3519   -0.7182   -1.6814 C   0  0  0  0  0  0  0  0  0  0  0  0
    3.2020   -1.1896   -2.4010 O   0  0  0  0  0  0  0  0  0  0  0  0
    1.3923    0.3662   -2.1242 C   0  0  0  0  0  0  0  0  0  0  0  0
    0.2867    0.6462   -1.1175 C   0  0  0  0  0  0  0  0  0  0  0  0
   -0.3234    1.4930   -1.4511 H   0  0  0  0  0  0  0  0  0  0  0  0
    0.8172    0.9800    0.2624 C   0  0  0  0  0  0  0  0  0  0  0  0
    0.3124    0.5480    1.2799 O   0  0  0  0  0  0  0  0  0  0  0  0
    1.8265    1.8059    0.2255 O   0  0  0  0  0  0  0  0  0  0  0  0
    2.3770    2.2415    1.4873 C   0  0  0  0  0  0  0  0  0  0  0  0
    3.4912    3.2259    1.1960 C   0  0  0  0  0  0  0  0  0  0  0  0
   -0.8330   -0.7858   -0.9361 S   0  0  0  0  0  0  0  0  0  0  0  0
   -2.1634    0.0488    0.4910 P   0  0  0  0  0  0  0  0  0  0  0  0
   -2.3447    1.9982    0.5098 S   0  0  0  0  0  0  0  0  0  0  0  0
   -3.5292   -0.6823    0.0482 O   0  0  0  0  0  0  0  0  0  0  0  0
   -4.1833   -0.3590   -1.1811 C   0  0  0  0  0  0  0  0  0  0  0  0
   -2.0126   -0.6149    1.9168 O   0  0  0  0  0  0  0  0  0  0  0  0
   -1.6218   -1.9875    2.0968 C   0  0  0  0  0  0  0  0  0  0  0  0
    1.3325   -3.5484    0.0530 H   0  0  0  0  0  0  0  0  0  0  0  0
    2.4211   -3.6409   -1.3375 H   0  0  0  0  0  0  0  0  0  0  0  0
    2.9354   -4.2848    0.2284 H   0  0  0  0  0  0  0  0  0  0  0  0
    3.9833   -2.0506   -0.2795 H   0  0  0  0  0  0  0  0  0  0  0  0
    2.9557   -1.9913    1.1904 H   0  0  0  0  0  0  0  0  0  0  0  0
    0.9668    0.0642   -3.0824 H   0  0  0  0  0  0  0  0  0  0  0  0
    1.9723    1.2778   -2.2859 H   0  0  0  0  0  0  0  0  0  0  0  0
    1.5700    2.6944    2.0718 H   0  0  0  0  0  0  0  0  0  0  0  0
    2.7389    1.3593    2.0238 H   0  0  0  0  0  0  0  0  0  0  0  0
    3.1013    4.0776    0.6470 H   0  0  0  0  0  0  0  0  0  0  0  0
    3.9168    3.5695    2.1328 H   0  0  0  0  0  0  0  0  0  0  0  0
    4.2664    2.7493    0.6037 H   0  0  0  0  0  0  0  0  0  0  0  0
   -5.1643   -0.8232   -1.1228 H   0  0  0  0  0  0  0  0  0  0  0  0
   -3.6157   -0.7606   -2.0206 H   0  0  0  0  0  0  0  0  0  0  0  0
   -4.2798    0.7238   -1.2791 H   0  0  0  0  0  0  0  0  0  0  0  0
   -0.5630   -2.0910    1.8588 H   0  0  0  0  0  0  0  0  0  0  0  0
   -2.2220   -2.6401    1.4643 H   0  0  0  0  0  0  0  0  0  0  0  0
   -1.7978   -2.1971    3.1486 H   0  0  0  0  0  0  0  0  0  0  0  0
  1  2  1  0  0  0  0
  2  3  1  0  0  0  0
  3  4  1  0  0  0  0
  4  5  2  0  0  0  0
  4  6  1  0  0  0  0
  6  7  1  0  0  0  0
  7  8  1  0  0  0  0
  7  9  1  0  0  0  0
  9 10  2  0  0  0  0
  9 11  4  0  0  0  0
 11 12  1  0  0  0  0
 12 13  1  0  0  0  0
  7 14  1  0  0  0  0
 14 15  1  0  0  0  0
 15 16  2  0  0  0  0
 15 17  1  0  0  0  0
 17 18  1  0  0  0  0
 15 19  2  0  0  0  0
 19 20  1  0  0  0  0
  1 21  1  0  0  0  0
  1 22  1  0  0  0  0
  1 23  1  0  0  0  0
  2 24  1  0  0  0  0
  2 25  1  0  0  0  0
  6 26  1  0  0  0  0
  6 27  1  0  0  0  0
 12 28  1  0  0  0  0
 12 29  1  0  0  0  0
 13 30  1  0  0  0  0
 13 31  1  0  0  0  0
 13 32  1  0  0  0  0
 18 33  1  0  0  0  0
 18 34  1  0  0  0  0
 18 35  1  0  0  0  0
 20 36  1  0  0  0  0
 20 37  1  0  0  0  0
 20 38  1  0  0  0  0
M  END
