 xtb: 6.7.1 (edcfbbe)
          04092505203D

 41 40  0     0  0            999 V2000
    5.3406   -0.8298   -1.6095 C   0  0  0  0  0  0  0  0  0  0  0  0
    4.0952   -1.6367   -1.2980 C   0  0  0  0  0  0  0  0  0  0  0  0
    3.4825   -1.2144   -0.0640 O   0  0  0  0  0  0  0  0  0  0  0  0
    2.4491   -0.0148    0.0467 P   0  0  0  0  0  0  0  0  0  0  0  0
    3.0979    1.7725   -0.4206 S   0  0  0  0  0  0  0  0  0  0  0  0
    2.0328   -0.0510    1.5620 O   0  0  0  0  0  0  0  0  0  0  0  0
    1.2462   -1.0543    2.2494 C   0  0  0  0  0  0  0  0  0  0  0  0
    1.8089   -2.4523    2.1091 C   0  0  0  0  0  0  0  0  0  0  0  0
    0.7944   -0.7005   -1.1201 S   0  0  0  0  0  0  0  0  0  0  0  0
    0.0281    0.9183   -1.3347 C   0  0  0  0  0  0  0  0  0  0  0  0
   -0.7218    1.5476    0.1943 S   0  0  0  0  0  0  0  0  0  0  0  0
   -2.4647    0.3648    0.0772 P   0  0  0  0  0  0  0  0  0  0  0  0
   -3.2935    0.1593   -1.6921 S   0  0  0  0  0  0  0  0  0  0  0  0
   -3.4341    0.9312    1.2028 O   0  0  0  0  0  0  0  0  0  0  0  0
   -4.3991    1.9651    0.9402 C   0  0  0  0  0  0  0  0  0  0  0  0
   -3.7393    3.2953    0.6396 C   0  0  0  0  0  0  0  0  0  0  0  0
   -1.9429   -0.9681    0.7537 O   0  0  0  0  0  0  0  0  0  0  0  0
   -2.6370   -2.2323    0.6118 C   0  0  0  0  0  0  0  0  0  0  0  0
   -1.6118   -3.3320    0.4265 C   0  0  0  0  0  0  0  0  0  0  0  0
    5.0862    0.2151   -1.7726 H   0  0  0  0  0  0  0  0  0  0  0  0
    6.0416   -0.8897   -0.7814 H   0  0  0  0  0  0  0  0  0  0  0  0
    5.8081   -1.2252   -2.5055 H   0  0  0  0  0  0  0  0  0  0  0  0
    4.3398   -2.6869   -1.1269 H   0  0  0  0  0  0  0  0  0  0  0  0
    3.3629   -1.5587   -2.1062 H   0  0  0  0  0  0  0  0  0  0  0  0
    1.2698   -0.7129    3.2857 H   0  0  0  0  0  0  0  0  0  0  0  0
    0.2212   -1.0010    1.8714 H   0  0  0  0  0  0  0  0  0  0  0  0
    2.8626   -2.4591    2.3758 H   0  0  0  0  0  0  0  0  0  0  0  0
    1.2691   -3.1183    2.7760 H   0  0  0  0  0  0  0  0  0  0  0  0
    1.7011   -2.8062    1.0862 H   0  0  0  0  0  0  0  0  0  0  0  0
   -0.7415    0.8156   -2.1005 H   0  0  0  0  0  0  0  0  0  0  0  0
    0.7929    1.6393   -1.6267 H   0  0  0  0  0  0  0  0  0  0  0  0
   -5.0245    1.6475    0.0998 H   0  0  0  0  0  0  0  0  0  0  0  0
   -4.9944    2.0063    1.8532 H   0  0  0  0  0  0  0  0  0  0  0  0
   -3.0385    3.5575    1.4285 H   0  0  0  0  0  0  0  0  0  0  0  0
   -3.1973    3.2380   -0.3038 H   0  0  0  0  0  0  0  0  0  0  0  0
   -4.4997    4.0657    0.5615 H   0  0  0  0  0  0  0  0  0  0  0  0
   -3.2275   -2.3776    1.5184 H   0  0  0  0  0  0  0  0  0  0  0  0
   -3.3069   -2.1680   -0.2522 H   0  0  0  0  0  0  0  0  0  0  0  0
   -0.9644   -3.3926    1.2958 H   0  0  0  0  0  0  0  0  0  0  0  0
   -2.1288   -4.2772    0.2967 H   0  0  0  0  0  0  0  0  0  0  0  0
   -1.0059   -3.1313   -0.4539 H   0  0  0  0  0  0  0  0  0  0  0  0
  1  2  1  0  0  0  0
  2  3  1  0  0  0  0
  3  4  2  0  0  0  0
  4  5  2  0  0  0  0
  4  6  2  0  0  0  0
  6  7  1  0  0  0  0
  7  8  1  0  0  0  0
  4  9  1  0  0  0  0
  9 10  1  0  0  0  0
 10 11  1  0  0  0  0
 11 12  1  0  0  0  0
 12 13  2  0  0  0  0
 12 14  2  0  0  0  0
 14 15  1  0  0  0  0
 15 16  1  0  0  0  0
 12 17  2  0  0  0  0
 17 18  1  0  0  0  0
 18 19  1  0  0  0  0
  1 20  1  0  0  0  0
  1 21  1  0  0  0  0
  1 22  1  0  0  0  0
  2 23  1  0  0  0  0
  2 24  1  0  0  0  0
  7 25  1  0  0  0  0
  7 26  1  0  0  0  0
  8 27  1  0  0  0  0
  8 28  1  0  0  0  0
  8 29  1  0  0  0  0
 10 30  1  0  0  0  0
 10 31  1  0  0  0  0
 15 32  1  0  0  0  0
 15 33  1  0  0  0  0
 16 34  1  0  0  0  0
 16 35  1  0  0  0  0
 16 36  1  0  0  0  0
 18 37  1  0  0  0  0
 18 38  1  0  0  0  0
 19 39  1  0  0  0  0
 19 40  1  0  0  0  0
 19 41  1  0  0  0  0
M  END
