 xtb: 6.7.1 (edcfbbe)
          04032519583D

 10  9  0     0  0            999 V2000
   -0.6947   -0.5497   -0.3284 C   0  0  0  0  0  0  0  0  0  0  0  0
    0.6889   -0.5800    0.3233 C   0  0  0  0  0  0  0  0  0  0  0  0
    1.4550    0.5035   -0.1599 O   0  0  0  0  0  0  0  0  0  0  0  0
   -1.4958    0.5311    0.0838 O   0  0  0  0  0  0  0  0  0  0  0  0
   -1.2009   -1.5028   -0.1231 H   0  0  0  0  0  0  0  0  0  0  0  0
   -0.5767   -0.4305   -1.4070 H   0  0  0  0  0  0  0  0  0  0  0  0
    1.1671   -1.5341    0.0663 H   0  0  0  0  0  0  0  0  0  0  0  0
    0.5820   -0.5174    1.4147 H   0  0  0  0  0  0  0  0  0  0  0  0
    2.3216    0.5034    0.2687 H   0  0  0  0  0  0  0  0  0  0  0  0
   -1.5771    0.5206    1.0483 H   0  0  0  0  0  0  0  0  0  0  0  0
  1  2  1  0  0  0  0
  2  3  1  0  0  0  0
  1  4  1  0  0  0  0
  1  5  1  0  0  0  0
  1  6  1  0  0  0  0
  2  7  1  0  0  0  0
  2  8  1  0  0  0  0
  3  9  1  0  0  0  0
  4 10  1  0  0  0  0
M  END
