 xtb: 6.7.1 (edcfbbe)
          04092505213D

 41 40  0     0  0            999 V2000
    5.9392   -0.7173   -0.3993 C   0  0  0  0  0  0  0  0  0  0  0  0
    5.0019   -0.2813   -1.5062 C   0  0  0  0  0  0  0  0  0  0  0  0
    3.6661   -0.7930   -1.3223 O   0  0  0  0  0  0  0  0  0  0  0  0
    2.7281   -0.3129   -0.1393 P   0  0  0  0  0  0  0  0  0  0  0  0
    2.8610    1.5902    0.3333 S   0  0  0  0  0  0  0  0  0  0  0  0
    3.1248   -1.3246    1.0206 O   0  0  0  0  0  0  0  0  0  0  0  0
    2.7467   -1.1159    2.3922 C   0  0  0  0  0  0  0  0  0  0  0  0
    1.2551   -1.2778    2.6023 C   0  0  0  0  0  0  0  0  0  0  0  0
    0.8936   -1.0194   -0.9240 S   0  0  0  0  0  0  0  0  0  0  0  0
    0.0094    0.5643   -1.0529 C   0  0  0  0  0  0  0  0  0  0  0  0
   -1.0280    0.9311    0.3832 S   0  0  0  0  0  0  0  0  0  0  0  0
   -2.9575    0.4861   -0.4332 P   0  0  0  0  0  0  0  0  0  0  0  0
   -2.9959   -0.0439   -2.3181 S   0  0  0  0  0  0  0  0  0  0  0  0
   -3.8016    1.7936   -0.1899 O   0  0  0  0  0  0  0  0  0  0  0  0
   -3.7097    2.6859    0.9471 C   0  0  0  0  0  0  0  0  0  0  0  0
   -3.8391    1.9646    2.2705 C   0  0  0  0  0  0  0  0  0  0  0  0
   -3.6538   -0.5491    0.5540 O   0  0  0  0  0  0  0  0  0  0  0  0
   -3.5176   -1.9719    0.4191 C   0  0  0  0  0  0  0  0  0  0  0  0
   -2.1561   -2.4578    0.8739 C   0  0  0  0  0  0  0  0  0  0  0  0
    5.6473   -0.2514    0.5407 H   0  0  0  0  0  0  0  0  0  0  0  0
    5.9045   -1.7973   -0.2827 H   0  0  0  0  0  0  0  0  0  0  0  0
    6.9513   -0.4113   -0.6451 H   0  0  0  0  0  0  0  0  0  0  0  0
    5.3027   -0.6850   -2.4739 H   0  0  0  0  0  0  0  0  0  0  0  0
    4.9487    0.8111   -1.5594 H   0  0  0  0  0  0  0  0  0  0  0  0
    3.3149   -1.8707    2.9377 H   0  0  0  0  0  0  0  0  0  0  0  0
    3.0715   -0.1143    2.6926 H   0  0  0  0  0  0  0  0  0  0  0  0
    0.9203   -2.2295    2.1974 H   0  0  0  0  0  0  0  0  0  0  0  0
    1.0363   -1.2391    3.6646 H   0  0  0  0  0  0  0  0  0  0  0  0
    0.7175   -0.4710    2.1040 H   0  0  0  0  0  0  0  0  0  0  0  0
   -0.6295    0.5034   -1.9364 H   0  0  0  0  0  0  0  0  0  0  0  0
    0.7385    1.3695   -1.1362 H   0  0  0  0  0  0  0  0  0  0  0  0
   -2.7564    3.2171    0.8857 H   0  0  0  0  0  0  0  0  0  0  0  0
   -4.5331    3.3824    0.7821 H   0  0  0  0  0  0  0  0  0  0  0  0
   -4.7557    1.3813    2.2942 H   0  0  0  0  0  0  0  0  0  0  0  0
   -2.9906    1.2984    2.4158 H   0  0  0  0  0  0  0  0  0  0  0  0
   -3.8549    2.6959    3.0728 H   0  0  0  0  0  0  0  0  0  0  0  0
   -4.3154   -2.3710    1.0475 H   0  0  0  0  0  0  0  0  0  0  0  0
   -3.6982   -2.2442   -0.6260 H   0  0  0  0  0  0  0  0  0  0  0  0
   -2.1521   -3.5429    0.8928 H   0  0  0  0  0  0  0  0  0  0  0  0
   -1.3838   -2.1202    0.1838 H   0  0  0  0  0  0  0  0  0  0  0  0
   -1.9356   -2.0792    1.8686 H   0  0  0  0  0  0  0  0  0  0  0  0
  1  2  1  0  0  0  0
  2  3  1  0  0  0  0
  3  4  2  0  0  0  0
  4  5  2  0  0  0  0
  4  6  2  0  0  0  0
  6  7  1  0  0  0  0
  7  8  1  0  0  0  0
  4  9  1  0  0  0  0
  9 10  1  0  0  0  0
 10 11  1  0  0  0  0
 11 12  1  0  0  0  0
 12 13  2  0  0  0  0
 12 14  2  0  0  0  0
 14 15  1  0  0  0  0
 15 16  1  0  0  0  0
 12 17  2  0  0  0  0
 17 18  1  0  0  0  0
 18 19  1  0  0  0  0
  1 20  1  0  0  0  0
  1 21  1  0  0  0  0
  1 22  1  0  0  0  0
  2 23  1  0  0  0  0
  2 24  1  0  0  0  0
  7 25  1  0  0  0  0
  7 26  1  0  0  0  0
  8 27  1  0  0  0  0
  8 28  1  0  0  0  0
  8 29  1  0  0  0  0
 10 30  1  0  0  0  0
 10 31  1  0  0  0  0
 15 32  1  0  0  0  0
 15 33  1  0  0  0  0
 16 34  1  0  0  0  0
 16 35  1  0  0  0  0
 16 36  1  0  0  0  0
 18 37  1  0  0  0  0
 18 38  1  0  0  0  0
 19 39  1  0  0  0  0
 19 40  1  0  0  0  0
 19 41  1  0  0  0  0
M  END
