 xtb: 6.7.1 (edcfbbe)
          04092505213D

 41 40  0     0  0            999 V2000
    4.0876   -1.8464   -2.2744 C   0  0  0  0  0  0  0  0  0  0  0  0
    4.4323   -0.4030   -1.9686 C   0  0  0  0  0  0  0  0  0  0  0  0
    3.9269    0.0220   -0.6912 O   0  0  0  0  0  0  0  0  0  0  0  0
    2.3744    0.1679   -0.3870 P   0  0  0  0  0  0  0  0  0  0  0  0
    1.3257    0.9120   -1.8621 S   0  0  0  0  0  0  0  0  0  0  0  0
    2.3527    1.1257    0.8650 O   0  0  0  0  0  0  0  0  0  0  0  0
    2.7143    0.7926    2.2271 C   0  0  0  0  0  0  0  0  0  0  0  0
    4.0987    0.1932    2.3408 C   0  0  0  0  0  0  0  0  0  0  0  0
    1.7990   -1.7661    0.3070 S   0  0  0  0  0  0  0  0  0  0  0  0
    0.0204   -1.5539    0.1435 C   0  0  0  0  0  0  0  0  0  0  0  0
   -0.5843   -0.3183    1.3648 S   0  0  0  0  0  0  0  0  0  0  0  0
   -2.3286    0.3186    0.3707 P   0  0  0  0  0  0  0  0  0  0  0  0
   -3.2251    1.8410    1.2131 S   0  0  0  0  0  0  0  0  0  0  0  0
   -3.1715   -1.0250    0.1853 O   0  0  0  0  0  0  0  0  0  0  0  0
   -3.8409   -1.6529    1.2961 C   0  0  0  0  0  0  0  0  0  0  0  0
   -5.2780   -1.1816    1.4022 C   0  0  0  0  0  0  0  0  0  0  0  0
   -1.8068    0.5244   -1.1061 O   0  0  0  0  0  0  0  0  0  0  0  0
   -2.3927    1.4885   -2.0005 C   0  0  0  0  0  0  0  0  0  0  0  0
   -3.7386    1.0120   -2.5023 C   0  0  0  0  0  0  0  0  0  0  0  0
    4.6054   -2.1530   -3.1776 H   0  0  0  0  0  0  0  0  0  0  0  0
    4.3850   -2.4901   -1.4507 H   0  0  0  0  0  0  0  0  0  0  0  0
    3.0153   -1.9481   -2.4320 H   0  0  0  0  0  0  0  0  0  0  0  0
    4.0271    0.2608   -2.7391 H   0  0  0  0  0  0  0  0  0  0  0  0
    5.5096   -0.2555   -1.8821 H   0  0  0  0  0  0  0  0  0  0  0  0
    2.6440    1.7521    2.7417 H   0  0  0  0  0  0  0  0  0  0  0  0
    1.9530    0.1123    2.6213 H   0  0  0  0  0  0  0  0  0  0  0  0
    4.8319    0.8498    1.8800 H   0  0  0  0  0  0  0  0  0  0  0  0
    4.3402    0.0646    3.3914 H   0  0  0  0  0  0  0  0  0  0  0  0
    4.1333   -0.7762    1.8477 H   0  0  0  0  0  0  0  0  0  0  0  0
   -0.4348   -2.5189    0.3481 H   0  0  0  0  0  0  0  0  0  0  0  0
   -0.2145   -1.1894   -0.8563 H   0  0  0  0  0  0  0  0  0  0  0  0
   -3.7908   -2.7220    1.0804 H   0  0  0  0  0  0  0  0  0  0  0  0
   -3.2897   -1.4369    2.2175 H   0  0  0  0  0  0  0  0  0  0  0  0
   -5.3097   -0.1138    1.6078 H   0  0  0  0  0  0  0  0  0  0  0  0
   -5.8042   -1.3764    0.4719 H   0  0  0  0  0  0  0  0  0  0  0  0
   -5.7694   -1.7120    2.2114 H   0  0  0  0  0  0  0  0  0  0  0  0
   -2.4879    2.4434   -1.4734 H   0  0  0  0  0  0  0  0  0  0  0  0
   -1.6555    1.5825   -2.8001 H   0  0  0  0  0  0  0  0  0  0  0  0
   -3.6416    0.0343   -2.9665 H   0  0  0  0  0  0  0  0  0  0  0  0
   -4.4332    0.9404   -1.6658 H   0  0  0  0  0  0  0  0  0  0  0  0
   -4.1252    1.7221   -3.2264 H   0  0  0  0  0  0  0  0  0  0  0  0
  1  2  1  0  0  0  0
  2  3  1  0  0  0  0
  3  4  2  0  0  0  0
  4  5  2  0  0  0  0
  4  6  2  0  0  0  0
  6  7  1  0  0  0  0
  7  8  1  0  0  0  0
  4  9  1  0  0  0  0
  9 10  1  0  0  0  0
 10 11  1  0  0  0  0
 11 12  1  0  0  0  0
 12 13  2  0  0  0  0
 12 14  2  0  0  0  0
 14 15  1  0  0  0  0
 15 16  1  0  0  0  0
 12 17  2  0  0  0  0
 17 18  1  0  0  0  0
 18 19  1  0  0  0  0
  1 20  1  0  0  0  0
  1 21  1  0  0  0  0
  1 22  1  0  0  0  0
  2 23  1  0  0  0  0
  2 24  1  0  0  0  0
  7 25  1  0  0  0  0
  7 26  1  0  0  0  0
  8 27  1  0  0  0  0
  8 28  1  0  0  0  0
  8 29  1  0  0  0  0
 10 30  1  0  0  0  0
 10 31  1  0  0  0  0
 15 32  1  0  0  0  0
 15 33  1  0  0  0  0
 16 34  1  0  0  0  0
 16 35  1  0  0  0  0
 16 36  1  0  0  0  0
 18 37  1  0  0  0  0
 18 38  1  0  0  0  0
 19 39  1  0  0  0  0
 19 40  1  0  0  0  0
 19 41  1  0  0  0  0
M  END
