 xtb: 6.7.1 (edcfbbe)
          04092505213D

 41 40  0     0  0            999 V2000
    5.4834   -0.1088   -0.2188 C   0  0  0  0  0  0  0  0  0  0  0  0
    4.2951   -1.0331   -0.0518 C   0  0  0  0  0  0  0  0  0  0  0  0
    3.2567   -0.7161   -1.0145 O   0  0  0  0  0  0  0  0  0  0  0  0
    2.0336    0.2287   -0.7118 P   0  0  0  0  0  0  0  0  0  0  0  0
    1.0008    0.5443   -2.3427 S   0  0  0  0  0  0  0  0  0  0  0  0
    2.7138    1.5096   -0.0710 O   0  0  0  0  0  0  0  0  0  0  0  0
    1.9871    2.6976    0.3005 C   0  0  0  0  0  0  0  0  0  0  0  0
    1.7011    2.7034    1.7886 C   0  0  0  0  0  0  0  0  0  0  0  0
    1.0877   -0.7038    0.9666 S   0  0  0  0  0  0  0  0  0  0  0  0
    0.4646   -2.1836    0.1458 C   0  0  0  0  0  0  0  0  0  0  0  0
   -0.9695   -1.9107   -0.9599 S   0  0  0  0  0  0  0  0  0  0  0  0
   -2.0419   -0.4532    0.1300 P   0  0  0  0  0  0  0  0  0  0  0  0
   -1.5062    1.4379    0.1635 S   0  0  0  0  0  0  0  0  0  0  0  0
   -2.1341   -1.2141    1.5115 O   0  0  0  0  0  0  0  0  0  0  0  0
   -2.6682   -0.5967    2.7089 C   0  0  0  0  0  0  0  0  0  0  0  0
   -1.5647    0.0395    3.5294 C   0  0  0  0  0  0  0  0  0  0  0  0
   -3.5006   -0.6488   -0.4773 O   0  0  0  0  0  0  0  0  0  0  0  0
   -4.0858    0.2193   -1.4663 C   0  0  0  0  0  0  0  0  0  0  0  0
   -5.1187    1.1208   -0.8175 C   0  0  0  0  0  0  0  0  0  0  0  0
    6.2709   -0.4175    0.4616 H   0  0  0  0  0  0  0  0  0  0  0  0
    5.8514   -0.1567   -1.2401 H   0  0  0  0  0  0  0  0  0  0  0  0
    5.1984    0.9161    0.0015 H   0  0  0  0  0  0  0  0  0  0  0  0
    3.8777   -0.9645    0.9563 H   0  0  0  0  0  0  0  0  0  0  0  0
    4.5642   -2.0671   -0.2752 H   0  0  0  0  0  0  0  0  0  0  0  0
    2.6409    3.5242    0.0169 H   0  0  0  0  0  0  0  0  0  0  0  0
    1.0610    2.7529   -0.2801 H   0  0  0  0  0  0  0  0  0  0  0  0
    1.0491    1.8724    2.0486 H   0  0  0  0  0  0  0  0  0  0  0  0
    2.6265    2.6165    2.3502 H   0  0  0  0  0  0  0  0  0  0  0  0
    1.2027    3.6317    2.0477 H   0  0  0  0  0  0  0  0  0  0  0  0
    0.1657   -2.8670    0.9371 H   0  0  0  0  0  0  0  0  0  0  0  0
    1.2409   -2.6181   -0.4822 H   0  0  0  0  0  0  0  0  0  0  0  0
   -3.4236    0.1407    2.4258 H   0  0  0  0  0  0  0  0  0  0  0  0
   -3.1413   -1.4225    3.2425 H   0  0  0  0  0  0  0  0  0  0  0  0
   -0.7785   -0.6837    3.7275 H   0  0  0  0  0  0  0  0  0  0  0  0
   -1.1365    0.8815    2.9907 H   0  0  0  0  0  0  0  0  0  0  0  0
   -1.9778    0.3938    4.4683 H   0  0  0  0  0  0  0  0  0  0  0  0
   -3.2994    0.8115   -1.9440 H   0  0  0  0  0  0  0  0  0  0  0  0
   -4.5375   -0.4468   -2.2034 H   0  0  0  0  0  0  0  0  0  0  0  0
   -5.6097    1.7104   -1.5849 H   0  0  0  0  0  0  0  0  0  0  0  0
   -5.8577    0.5225   -0.2920 H   0  0  0  0  0  0  0  0  0  0  0  0
   -4.6336    1.7917   -0.1112 H   0  0  0  0  0  0  0  0  0  0  0  0
  1  2  1  0  0  0  0
  2  3  1  0  0  0  0
  3  4  2  0  0  0  0
  4  5  2  0  0  0  0
  4  6  2  0  0  0  0
  6  7  1  0  0  0  0
  7  8  1  0  0  0  0
  4  9  1  0  0  0  0
  9 10  1  0  0  0  0
 10 11  1  0  0  0  0
 11 12  1  0  0  0  0
 12 13  2  0  0  0  0
 12 14  2  0  0  0  0
 14 15  1  0  0  0  0
 15 16  1  0  0  0  0
 12 17  2  0  0  0  0
 17 18  1  0  0  0  0
 18 19  1  0  0  0  0
  1 20  1  0  0  0  0
  1 21  1  0  0  0  0
  1 22  1  0  0  0  0
  2 23  1  0  0  0  0
  2 24  1  0  0  0  0
  7 25  1  0  0  0  0
  7 26  1  0  0  0  0
  8 27  1  0  0  0  0
  8 28  1  0  0  0  0
  8 29  1  0  0  0  0
 10 30  1  0  0  0  0
 10 31  1  0  0  0  0
 15 32  1  0  0  0  0
 15 33  1  0  0  0  0
 16 34  1  0  0  0  0
 16 35  1  0  0  0  0
 16 36  1  0  0  0  0
 18 37  1  0  0  0  0
 18 38  1  0  0  0  0
 19 39  1  0  0  0  0
 19 40  1  0  0  0  0
 19 41  1  0  0  0  0
M  END
