 xtb: 6.7.1 (edcfbbe)
          04092505203D

 41 40  0     0  0            999 V2000
    4.5900   -1.4252   -0.8933 C   0  0  0  0  0  0  0  0  0  0  0  0
    4.6732    0.0368   -0.5057 C   0  0  0  0  0  0  0  0  0  0  0  0
    3.5311    0.4767    0.2515 O   0  0  0  0  0  0  0  0  0  0  0  0
    2.0637    0.5409   -0.3636 P   0  0  0  0  0  0  0  0  0  0  0  0
    1.9782    1.1109   -2.2303 S   0  0  0  0  0  0  0  0  0  0  0  0
    1.3428    1.5203    0.6405 O   0  0  0  0  0  0  0  0  0  0  0  0
    1.4324    1.3800    2.0802 C   0  0  0  0  0  0  0  0  0  0  0  0
    2.4641    2.3314    2.6492 C   0  0  0  0  0  0  0  0  0  0  0  0
    1.3092   -1.4071    0.0665 S   0  0  0  0  0  0  0  0  0  0  0  0
    0.1969   -1.6497   -1.3524 C   0  0  0  0  0  0  0  0  0  0  0  0
   -1.5094   -1.9790   -0.8603 S   0  0  0  0  0  0  0  0  0  0  0  0
   -1.9410   -0.0785   -0.0063 P   0  0  0  0  0  0  0  0  0  0  0  0
   -1.4093    1.4727   -1.0756 S   0  0  0  0  0  0  0  0  0  0  0  0
   -1.3008   -0.0725    1.4318 O   0  0  0  0  0  0  0  0  0  0  0  0
   -1.5791   -1.0963    2.4269 C   0  0  0  0  0  0  0  0  0  0  0  0
   -2.6264   -0.6131    3.4074 C   0  0  0  0  0  0  0  0  0  0  0  0
   -3.4933   -0.1989    0.2998 O   0  0  0  0  0  0  0  0  0  0  0  0
   -4.4653   -0.1827   -0.7663 C   0  0  0  0  0  0  0  0  0  0  0  0
   -5.8203    0.1120   -0.1560 C   0  0  0  0  0  0  0  0  0  0  0  0
    3.7979   -1.5699   -1.6263 H   0  0  0  0  0  0  0  0  0  0  0  0
    5.5339   -1.7295   -1.3340 H   0  0  0  0  0  0  0  0  0  0  0  0
    4.3826   -2.0395   -0.0209 H   0  0  0  0  0  0  0  0  0  0  0  0
    4.7544    0.6654   -1.3975 H   0  0  0  0  0  0  0  0  0  0  0  0
    5.5141    0.2280    0.1625 H   0  0  0  0  0  0  0  0  0  0  0  0
    0.4281    1.6170    2.4371 H   0  0  0  0  0  0  0  0  0  0  0  0
    1.6745    0.3403    2.3184 H   0  0  0  0  0  0  0  0  0  0  0  0
    3.4557    2.0734    2.2876 H   0  0  0  0  0  0  0  0  0  0  0  0
    2.2342    3.3497    2.3472 H   0  0  0  0  0  0  0  0  0  0  0  0
    2.4466    2.2647    3.7325 H   0  0  0  0  0  0  0  0  0  0  0  0
    0.5272   -2.5312   -1.8960 H   0  0  0  0  0  0  0  0  0  0  0  0
    0.2387   -0.7573   -1.9837 H   0  0  0  0  0  0  0  0  0  0  0  0
   -1.9032   -2.0068    1.9160 H   0  0  0  0  0  0  0  0  0  0  0  0
   -0.6187   -1.2722    2.9151 H   0  0  0  0  0  0  0  0  0  0  0  0
   -2.3012    0.3085    3.8820 H   0  0  0  0  0  0  0  0  0  0  0  0
   -3.5656   -0.4294    2.8928 H   0  0  0  0  0  0  0  0  0  0  0  0
   -2.7755   -1.3740    4.1670 H   0  0  0  0  0  0  0  0  0  0  0  0
   -4.1736    0.5848   -1.4909 H   0  0  0  0  0  0  0  0  0  0  0  0
   -4.4492   -1.1607   -1.2543 H   0  0  0  0  0  0  0  0  0  0  0  0
   -6.0743   -0.6520    0.5728 H   0  0  0  0  0  0  0  0  0  0  0  0
   -5.8056    1.0807    0.3358 H   0  0  0  0  0  0  0  0  0  0  0  0
   -6.5686    0.1217   -0.9416 H   0  0  0  0  0  0  0  0  0  0  0  0
  1  2  1  0  0  0  0
  2  3  1  0  0  0  0
  3  4  2  0  0  0  0
  4  5  2  0  0  0  0
  4  6  2  0  0  0  0
  6  7  1  0  0  0  0
  7  8  1  0  0  0  0
  4  9  1  0  0  0  0
  9 10  1  0  0  0  0
 10 11  1  0  0  0  0
 11 12  1  0  0  0  0
 12 13  2  0  0  0  0
 12 14  2  0  0  0  0
 14 15  1  0  0  0  0
 15 16  1  0  0  0  0
 12 17  2  0  0  0  0
 17 18  1  0  0  0  0
 18 19  1  0  0  0  0
  1 20  1  0  0  0  0
  1 21  1  0  0  0  0
  1 22  1  0  0  0  0
  2 23  1  0  0  0  0
  2 24  1  0  0  0  0
  7 25  1  0  0  0  0
  7 26  1  0  0  0  0
  8 27  1  0  0  0  0
  8 28  1  0  0  0  0
  8 29  1  0  0  0  0
 10 30  1  0  0  0  0
 10 31  1  0  0  0  0
 15 32  1  0  0  0  0
 15 33  1  0  0  0  0
 16 34  1  0  0  0  0
 16 35  1  0  0  0  0
 16 36  1  0  0  0  0
 18 37  1  0  0  0  0
 18 38  1  0  0  0  0
 19 39  1  0  0  0  0
 19 40  1  0  0  0  0
 19 41  1  0  0  0  0
M  END
