 xtb: 6.7.1 (edcfbbe)
          04092505203D

 41 40  0     0  0            999 V2000
    3.9155    1.4399   -1.9203 C   0  0  0  0  0  0  0  0  0  0  0  0
    2.5652    0.7958   -2.1477 C   0  0  0  0  0  0  0  0  0  0  0  0
    2.3846   -0.3516   -1.3011 O   0  0  0  0  0  0  0  0  0  0  0  0
    2.1467   -0.2309    0.2621 P   0  0  0  0  0  0  0  0  0  0  0  0
    1.1123    1.3576    0.7930 S   0  0  0  0  0  0  0  0  0  0  0  0
    3.6307   -0.2894    0.8250 O   0  0  0  0  0  0  0  0  0  0  0  0
    4.0104   -0.7310    2.1426 C   0  0  0  0  0  0  0  0  0  0  0  0
    3.1917   -0.0875    3.2421 C   0  0  0  0  0  0  0  0  0  0  0  0
    1.4212   -2.1574    0.6957 S   0  0  0  0  0  0  0  0  0  0  0  0
   -0.2236   -2.0890   -0.0641 C   0  0  0  0  0  0  0  0  0  0  0  0
   -1.4270   -1.0953    0.8657 S   0  0  0  0  0  0  0  0  0  0  0  0
   -1.9214    0.4029   -0.5759 P   0  0  0  0  0  0  0  0  0  0  0  0
   -0.9199    0.2821   -2.2558 S   0  0  0  0  0  0  0  0  0  0  0  0
   -1.8670    1.8363    0.0556 O   0  0  0  0  0  0  0  0  0  0  0  0
   -2.7694    2.3599    1.0622 C   0  0  0  0  0  0  0  0  0  0  0  0
   -2.6712    1.6049    2.3698 C   0  0  0  0  0  0  0  0  0  0  0  0
   -3.4948    0.2069   -0.7500 O   0  0  0  0  0  0  0  0  0  0  0  0
   -4.0368   -0.9724   -1.3740 C   0  0  0  0  0  0  0  0  0  0  0  0
   -5.5126   -0.7316   -1.6186 C   0  0  0  0  0  0  0  0  0  0  0  0
    4.0476    2.2579   -2.6214 H   0  0  0  0  0  0  0  0  0  0  0  0
    3.9680    1.8274   -0.9033 H   0  0  0  0  0  0  0  0  0  0  0  0
    4.7064    0.7077   -2.0585 H   0  0  0  0  0  0  0  0  0  0  0  0
    2.4581    0.3988   -3.1581 H   0  0  0  0  0  0  0  0  0  0  0  0
    1.7539    1.5067   -1.9548 H   0  0  0  0  0  0  0  0  0  0  0  0
    3.9119   -1.8196    2.1732 H   0  0  0  0  0  0  0  0  0  0  0  0
    5.0632   -0.4515    2.2122 H   0  0  0  0  0  0  0  0  0  0  0  0
    2.1486   -0.3917    3.1593 H   0  0  0  0  0  0  0  0  0  0  0  0
    3.5757   -0.4009    4.2075 H   0  0  0  0  0  0  0  0  0  0  0  0
    3.2407    0.9965    3.1682 H   0  0  0  0  0  0  0  0  0  0  0  0
   -0.5759   -3.1171   -0.0708 H   0  0  0  0  0  0  0  0  0  0  0  0
   -0.1434   -1.6852   -1.0776 H   0  0  0  0  0  0  0  0  0  0  0  0
   -2.4361    3.3931    1.1711 H   0  0  0  0  0  0  0  0  0  0  0  0
   -3.7833    2.3303    0.6591 H   0  0  0  0  0  0  0  0  0  0  0  0
   -3.0460    0.5889    2.2536 H   0  0  0  0  0  0  0  0  0  0  0  0
   -1.6341    1.5617    2.6955 H   0  0  0  0  0  0  0  0  0  0  0  0
   -3.2621    2.1173    3.1224 H   0  0  0  0  0  0  0  0  0  0  0  0
   -3.4975   -1.1494   -2.3106 H   0  0  0  0  0  0  0  0  0  0  0  0
   -3.8767   -1.8201   -0.7013 H   0  0  0  0  0  0  0  0  0  0  0  0
   -6.0194   -0.5406   -0.6773 H   0  0  0  0  0  0  0  0  0  0  0  0
   -5.6469    0.1256   -2.2723 H   0  0  0  0  0  0  0  0  0  0  0  0
   -5.9430   -1.6103   -2.0873 H   0  0  0  0  0  0  0  0  0  0  0  0
  1  2  1  0  0  0  0
  2  3  1  0  0  0  0
  3  4  2  0  0  0  0
  4  5  2  0  0  0  0
  4  6  2  0  0  0  0
  6  7  1  0  0  0  0
  7  8  1  0  0  0  0
  4  9  1  0  0  0  0
  9 10  1  0  0  0  0
 10 11  1  0  0  0  0
 11 12  1  0  0  0  0
 12 13  2  0  0  0  0
 12 14  2  0  0  0  0
 14 15  1  0  0  0  0
 15 16  1  0  0  0  0
 12 17  2  0  0  0  0
 17 18  1  0  0  0  0
 18 19  1  0  0  0  0
  1 20  1  0  0  0  0
  1 21  1  0  0  0  0
  1 22  1  0  0  0  0
  2 23  1  0  0  0  0
  2 24  1  0  0  0  0
  7 25  1  0  0  0  0
  7 26  1  0  0  0  0
  8 27  1  0  0  0  0
  8 28  1  0  0  0  0
  8 29  1  0  0  0  0
 10 30  1  0  0  0  0
 10 31  1  0  0  0  0
 15 32  1  0  0  0  0
 15 33  1  0  0  0  0
 16 34  1  0  0  0  0
 16 35  1  0  0  0  0
 16 36  1  0  0  0  0
 18 37  1  0  0  0  0
 18 38  1  0  0  0  0
 19 39  1  0  0  0  0
 19 40  1  0  0  0  0
 19 41  1  0  0  0  0
M  END
