 xtb: 6.7.1 (edcfbbe)
          04032519423D

 20 20  0     0  0            999 V2000
    0.8930    1.4483   -0.4781 C   0  0  0  0  0  0  0  0  0  0  0  0
    1.4028    0.1890    0.2419 C   0  0  0  0  0  0  0  0  0  0  0  0
    2.4899    0.1082    0.1098 H   0  0  0  0  0  0  0  0  0  0  0  0
    0.7272   -1.0498   -0.3819 C   0  0  0  0  0  0  0  0  0  0  0  0
    1.0762   -1.9586    0.1213 H   0  0  0  0  0  0  0  0  0  0  0  0
   -0.8011   -0.9701   -0.1777 C   0  0  0  0  0  0  0  0  0  0  0  0
   -1.2699   -1.5623   -0.9787 H   0  0  0  0  0  0  0  0  0  0  0  0
   -1.2829    0.5092   -0.2922 C   0  0  0  0  0  0  0  0  0  0  0  0
   -2.2298    0.5687   -0.8402 H   0  0  0  0  0  0  0  0  0  0  0  0
   -0.3752    1.2389   -1.0935 O   0  0  0  0  0  0  0  0  0  0  0  0
   -1.5137    1.0777    0.9470 O   0  0  0  0  0  0  0  0  0  0  0  0
   -1.0927   -1.5224    1.0790 O   0  0  0  0  0  0  0  0  0  0  0  0
    1.0788   -1.2024   -1.7306 O   0  0  0  0  0  0  0  0  0  0  0  0
    1.0881    0.3241    1.6117 O   0  0  0  0  0  0  0  0  0  0  0  0
    1.5564    1.7400   -1.2910 H   0  0  0  0  0  0  0  0  0  0  0  0
    0.8302    2.2669    0.2483 H   0  0  0  0  0  0  0  0  0  0  0  0
   -0.7223    0.9351    1.5103 H   0  0  0  0  0  0  0  0  0  0  0  0
   -2.0086   -1.3220    1.3215 H   0  0  0  0  0  0  0  0  0  0  0  0
    0.7243   -0.4562   -2.2377 H   0  0  0  0  0  0  0  0  0  0  0  0
    1.2954   -0.4940    2.0854 H   0  0  0  0  0  0  0  0  0  0  0  0
  1  2  1  0  0  0  0
  2  3  1  0  0  0  0
  2  4  1  0  0  0  0
  4  5  1  0  0  0  0
  4  6  1  0  0  0  0
  6  7  1  0  0  0  0
  6  8  1  0  0  0  0
  8  9  1  0  0  0  0
  1 10  1  0  0  0  0
  8 10  1  0  0  0  0
  8 11  1  0  0  0  0
  6 12  1  0  0  0  0
  4 13  1  0  0  0  0
  2 14  1  0  0  0  0
  1 15  1  0  0  0  0
  1 16  1  0  0  0  0
 11 17  1  0  0  0  0
 12 18  1  0  0  0  0
 13 19  1  0  0  0  0
 14 20  1  0  0  0  0
M  END
