 xtb: 6.7.1 (edcfbbe)
          04092505213D

 41 40  0     0  0            999 V2000
    2.5428   -3.1105   -0.2909 C   0  0  0  0  0  0  0  0  0  0  0  0
    3.3563   -2.1412   -1.1207 C   0  0  0  0  0  0  0  0  0  0  0  0
    3.4851   -0.8483   -0.4846 O   0  0  0  0  0  0  0  0  0  0  0  0
    2.3133    0.1466   -0.1292 P   0  0  0  0  0  0  0  0  0  0  0  0
    2.9695    1.9663    0.1434 S   0  0  0  0  0  0  0  0  0  0  0  0
    1.5896   -0.5066    1.1328 O   0  0  0  0  0  0  0  0  0  0  0  0
    1.2548    0.2033    2.3361 C   0  0  0  0  0  0  0  0  0  0  0  0
    2.3141   -0.0363    3.3932 C   0  0  0  0  0  0  0  0  0  0  0  0
    0.9338   -0.1364   -1.7348 S   0  0  0  0  0  0  0  0  0  0  0  0
    0.1374    1.4796   -1.6089 C   0  0  0  0  0  0  0  0  0  0  0  0
   -0.7516    1.7247   -0.0512 S   0  0  0  0  0  0  0  0  0  0  0  0
   -2.1864    0.1938   -0.3457 P   0  0  0  0  0  0  0  0  0  0  0  0
   -2.8248   -0.0647   -2.1726 S   0  0  0  0  0  0  0  0  0  0  0  0
   -3.3778    0.5482    0.6360 O   0  0  0  0  0  0  0  0  0  0  0  0
   -3.2614    0.5968    2.0792 C   0  0  0  0  0  0  0  0  0  0  0  0
   -2.9782    2.0049    2.5620 C   0  0  0  0  0  0  0  0  0  0  0  0
   -1.4102   -1.0390    0.3195 O   0  0  0  0  0  0  0  0  0  0  0  0
   -1.6215   -2.3942   -0.1203 C   0  0  0  0  0  0  0  0  0  0  0  0
   -2.9956   -2.8984    0.2708 C   0  0  0  0  0  0  0  0  0  0  0  0
    1.5258   -2.7387   -0.1858 H   0  0  0  0  0  0  0  0  0  0  0  0
    2.5200   -4.0748   -0.7886 H   0  0  0  0  0  0  0  0  0  0  0  0
    2.9822   -3.2228    0.6966 H   0  0  0  0  0  0  0  0  0  0  0  0
    2.9045   -1.9959   -2.1058 H   0  0  0  0  0  0  0  0  0  0  0  0
    4.3907   -2.4696   -1.2327 H   0  0  0  0  0  0  0  0  0  0  0  0
    1.1653    1.2717    2.1162 H   0  0  0  0  0  0  0  0  0  0  0  0
    0.2832   -0.1919    2.6384 H   0  0  0  0  0  0  0  0  0  0  0  0
    3.2678    0.3619    3.0517 H   0  0  0  0  0  0  0  0  0  0  0  0
    2.0267    0.4689    4.3096 H   0  0  0  0  0  0  0  0  0  0  0  0
    2.4240   -1.0998    3.5850 H   0  0  0  0  0  0  0  0  0  0  0  0
   -0.5636    1.5443   -2.4408 H   0  0  0  0  0  0  0  0  0  0  0  0
    0.8917    2.2649   -1.6567 H   0  0  0  0  0  0  0  0  0  0  0  0
   -4.2326    0.2469    2.4337 H   0  0  0  0  0  0  0  0  0  0  0  0
   -2.4784   -0.0963    2.3953 H   0  0  0  0  0  0  0  0  0  0  0  0
   -2.0046    2.3438    2.2133 H   0  0  0  0  0  0  0  0  0  0  0  0
   -3.7373    2.6860    2.1876 H   0  0  0  0  0  0  0  0  0  0  0  0
   -2.9905    2.0166    3.6474 H   0  0  0  0  0  0  0  0  0  0  0  0
   -1.4884   -2.4320   -1.2059 H   0  0  0  0  0  0  0  0  0  0  0  0
   -0.8286   -2.9597    0.3719 H   0  0  0  0  0  0  0  0  0  0  0  0
   -3.7604   -2.2893   -0.2109 H   0  0  0  0  0  0  0  0  0  0  0  0
   -3.1075   -3.9269   -0.0575 H   0  0  0  0  0  0  0  0  0  0  0  0
   -3.1295   -2.8478    1.3484 H   0  0  0  0  0  0  0  0  0  0  0  0
  1  2  1  0  0  0  0
  2  3  1  0  0  0  0
  3  4  2  0  0  0  0
  4  5  2  0  0  0  0
  4  6  2  0  0  0  0
  6  7  1  0  0  0  0
  7  8  1  0  0  0  0
  4  9  1  0  0  0  0
  9 10  1  0  0  0  0
 10 11  1  0  0  0  0
 11 12  1  0  0  0  0
 12 13  2  0  0  0  0
 12 14  2  0  0  0  0
 14 15  1  0  0  0  0
 15 16  1  0  0  0  0
 12 17  1  0  0  0  0
 17 18  1  0  0  0  0
 18 19  1  0  0  0  0
  1 20  1  0  0  0  0
  1 21  1  0  0  0  0
  1 22  1  0  0  0  0
  2 23  1  0  0  0  0
  2 24  1  0  0  0  0
  7 25  1  0  0  0  0
  7 26  1  0  0  0  0
  8 27  1  0  0  0  0
  8 28  1  0  0  0  0
  8 29  1  0  0  0  0
 10 30  1  0  0  0  0
 10 31  1  0  0  0  0
 15 32  1  0  0  0  0
 15 33  1  0  0  0  0
 16 34  1  0  0  0  0
 16 35  1  0  0  0  0
 16 36  1  0  0  0  0
 18 37  1  0  0  0  0
 18 38  1  0  0  0  0
 19 39  1  0  0  0  0
 19 40  1  0  0  0  0
 19 41  1  0  0  0  0
M  END
