 xtb: 6.7.1 (edcfbbe)
          04092505203D

 41 40  0     0  0            999 V2000
    1.0436   -0.9407    3.2515 C   0  0  0  0  0  0  0  0  0  0  0  0
    1.8757    0.2050    2.7117 C   0  0  0  0  0  0  0  0  0  0  0  0
    1.5039    0.5149    1.3440 O   0  0  0  0  0  0  0  0  0  0  0  0
    2.2967   -0.0855    0.1141 P   0  0  0  0  0  0  0  0  0  0  0  0
    2.9048   -1.9468    0.2574 S   0  0  0  0  0  0  0  0  0  0  0  0
    3.4499    0.9964   -0.0592 O   0  0  0  0  0  0  0  0  0  0  0  0
    4.5438    0.8080   -0.9819 C   0  0  0  0  0  0  0  0  0  0  0  0
    5.7768    0.3183   -0.2474 C   0  0  0  0  0  0  0  0  0  0  0  0
    0.9810    0.3382   -1.4809 S   0  0  0  0  0  0  0  0  0  0  0  0
    0.0171   -1.1954   -1.3526 C   0  0  0  0  0  0  0  0  0  0  0  0
   -1.0548   -1.2301    0.0993 S   0  0  0  0  0  0  0  0  0  0  0  0
   -2.3474    0.3486   -0.5386 P   0  0  0  0  0  0  0  0  0  0  0  0
   -2.6986    0.4484   -2.4578 S   0  0  0  0  0  0  0  0  0  0  0  0
   -1.6874    1.6722    0.0101 O   0  0  0  0  0  0  0  0  0  0  0  0
   -1.4451    1.9180    1.4162 C   0  0  0  0  0  0  0  0  0  0  0  0
   -2.5271    2.8047    1.9964 C   0  0  0  0  0  0  0  0  0  0  0  0
   -3.6210    0.1853    0.3989 O   0  0  0  0  0  0  0  0  0  0  0  0
   -4.7383   -0.6535    0.0498 C   0  0  0  0  0  0  0  0  0  0  0  0
   -4.3637   -2.1192   -0.0240 C   0  0  0  0  0  0  0  0  0  0  0  0
   -0.0153   -0.7122    3.1730 H   0  0  0  0  0  0  0  0  0  0  0  0
    1.2426   -1.8496    2.6879 H   0  0  0  0  0  0  0  0  0  0  0  0
    1.3002   -1.1060    4.2930 H   0  0  0  0  0  0  0  0  0  0  0  0
    2.9410   -0.0369    2.7469 H   0  0  0  0  0  0  0  0  0  0  0  0
    1.6909    1.1297    3.2602 H   0  0  0  0  0  0  0  0  0  0  0  0
    4.2448    0.0991   -1.7590 H   0  0  0  0  0  0  0  0  0  0  0  0
    4.7069    1.7900   -1.4290 H   0  0  0  0  0  0  0  0  0  0  0  0
    6.6039    0.2472   -0.9463 H   0  0  0  0  0  0  0  0  0  0  0  0
    6.0363    1.0101    0.5490 H   0  0  0  0  0  0  0  0  0  0  0  0
    5.5911   -0.6637    0.1825 H   0  0  0  0  0  0  0  0  0  0  0  0
    0.6947   -2.0455   -1.2691 H   0  0  0  0  0  0  0  0  0  0  0  0
   -0.5910   -1.2526   -2.2553 H   0  0  0  0  0  0  0  0  0  0  0  0
   -1.3949    0.9589    1.9388 H   0  0  0  0  0  0  0  0  0  0  0  0
   -0.4668    2.4023    1.4465 H   0  0  0  0  0  0  0  0  0  0  0  0
   -3.4890    2.3011    1.9518 H   0  0  0  0  0  0  0  0  0  0  0  0
   -2.2861    3.0292    3.0307 H   0  0  0  0  0  0  0  0  0  0  0  0
   -2.5896    3.7311    1.4320 H   0  0  0  0  0  0  0  0  0  0  0  0
   -5.4623   -0.4632    0.8434 H   0  0  0  0  0  0  0  0  0  0  0  0
   -5.1369   -0.3105   -0.9096 H   0  0  0  0  0  0  0  0  0  0  0  0
   -3.8614   -2.4309    0.8883 H   0  0  0  0  0  0  0  0  0  0  0  0
   -5.2632   -2.7107   -0.1613 H   0  0  0  0  0  0  0  0  0  0  0  0
   -3.6981   -2.2916   -0.8685 H   0  0  0  0  0  0  0  0  0  0  0  0
  1  2  1  0  0  0  0
  2  3  1  0  0  0  0
  3  4  2  0  0  0  0
  4  5  2  0  0  0  0
  4  6  2  0  0  0  0
  6  7  1  0  0  0  0
  7  8  1  0  0  0  0
  4  9  1  0  0  0  0
  9 10  1  0  0  0  0
 10 11  1  0  0  0  0
 11 12  1  0  0  0  0
 12 13  2  0  0  0  0
 12 14  2  0  0  0  0
 14 15  1  0  0  0  0
 15 16  1  0  0  0  0
 12 17  2  0  0  0  0
 17 18  1  0  0  0  0
 18 19  1  0  0  0  0
  1 20  1  0  0  0  0
  1 21  1  0  0  0  0
  1 22  1  0  0  0  0
  2 23  1  0  0  0  0
  2 24  1  0  0  0  0
  7 25  1  0  0  0  0
  7 26  1  0  0  0  0
  8 27  1  0  0  0  0
  8 28  1  0  0  0  0
  8 29  1  0  0  0  0
 10 30  1  0  0  0  0
 10 31  1  0  0  0  0
 15 32  1  0  0  0  0
 15 33  1  0  0  0  0
 16 34  1  0  0  0  0
 16 35  1  0  0  0  0
 16 36  1  0  0  0  0
 18 37  1  0  0  0  0
 18 38  1  0  0  0  0
 19 39  1  0  0  0  0
 19 40  1  0  0  0  0
 19 41  1  0  0  0  0
M  END
