 xtb: 6.7.1 (edcfbbe)
          04092505213D

 41 40  0     0  0            999 V2000
    2.5896   -0.5925   -2.7245 C   0  0  0  0  0  0  0  0  0  0  0  0
    2.7374    0.6587   -1.8828 C   0  0  0  0  0  0  0  0  0  0  0  0
    3.0872    0.3241   -0.5259 O   0  0  0  0  0  0  0  0  0  0  0  0
    2.0708    0.2254    0.6852 P   0  0  0  0  0  0  0  0  0  0  0  0
    1.0133    1.8146    1.1065 S   0  0  0  0  0  0  0  0  0  0  0  0
    3.0247   -0.0956    1.8989 O   0  0  0  0  0  0  0  0  0  0  0  0
    3.9574   -1.2047    1.9243 C   0  0  0  0  0  0  0  0  0  0  0  0
    5.3391   -0.7614    1.4894 C   0  0  0  0  0  0  0  0  0  0  0  0
    0.9905   -1.5853    0.3619 S   0  0  0  0  0  0  0  0  0  0  0  0
   -0.3842   -1.2601    1.5104 C   0  0  0  0  0  0  0  0  0  0  0  0
   -2.0074   -1.5999    0.7836 S   0  0  0  0  0  0  0  0  0  0  0  0
   -2.2171    0.0771   -0.4720 P   0  0  0  0  0  0  0  0  0  0  0  0
   -0.8326    0.5336   -1.7905 S   0  0  0  0  0  0  0  0  0  0  0  0
   -2.4756    1.2049    0.6091 O   0  0  0  0  0  0  0  0  0  0  0  0
   -2.4794    2.6117    0.2881 C   0  0  0  0  0  0  0  0  0  0  0  0
   -2.3151    3.3854    1.5788 C   0  0  0  0  0  0  0  0  0  0  0  0
   -3.6743   -0.1086   -1.0801 O   0  0  0  0  0  0  0  0  0  0  0  0
   -4.1669   -1.2777   -1.7644 C   0  0  0  0  0  0  0  0  0  0  0  0
   -3.1832   -1.8429   -2.7669 C   0  0  0  0  0  0  0  0  0  0  0  0
    2.4239   -0.3021   -3.7567 H   0  0  0  0  0  0  0  0  0  0  0  0
    3.4875   -1.2000   -2.6567 H   0  0  0  0  0  0  0  0  0  0  0  0
    1.7359   -1.1759   -2.3881 H   0  0  0  0  0  0  0  0  0  0  0  0
    1.8149    1.2460   -1.8894 H   0  0  0  0  0  0  0  0  0  0  0  0
    3.5647    1.2789   -2.2331 H   0  0  0  0  0  0  0  0  0  0  0  0
    3.9561   -1.5331    2.9651 H   0  0  0  0  0  0  0  0  0  0  0  0
    3.5746   -2.0029    1.2819 H   0  0  0  0  0  0  0  0  0  0  0  0
    6.0260   -1.5961    1.5879 H   0  0  0  0  0  0  0  0  0  0  0  0
    5.3223   -0.4297    0.4549 H   0  0  0  0  0  0  0  0  0  0  0  0
    5.6798    0.0600    2.1139 H   0  0  0  0  0  0  0  0  0  0  0  0
   -0.3365   -0.2135    1.8221 H   0  0  0  0  0  0  0  0  0  0  0  0
   -0.2980   -1.9347    2.3581 H   0  0  0  0  0  0  0  0  0  0  0  0
   -1.6552    2.8157   -0.4039 H   0  0  0  0  0  0  0  0  0  0  0  0
   -3.4287    2.8398   -0.2026 H   0  0  0  0  0  0  0  0  0  0  0  0
   -3.0902    3.0996    2.2837 H   0  0  0  0  0  0  0  0  0  0  0  0
   -1.3405    3.1752    2.0131 H   0  0  0  0  0  0  0  0  0  0  0  0
   -2.3877    4.4470    1.3675 H   0  0  0  0  0  0  0  0  0  0  0  0
   -4.4172   -2.0234   -1.0050 H   0  0  0  0  0  0  0  0  0  0  0  0
   -5.0773   -0.9253   -2.2527 H   0  0  0  0  0  0  0  0  0  0  0  0
   -3.6419   -2.6768   -3.2884 H   0  0  0  0  0  0  0  0  0  0  0  0
   -2.8932   -1.0819   -3.4879 H   0  0  0  0  0  0  0  0  0  0  0  0
   -2.2871   -2.1942   -2.2557 H   0  0  0  0  0  0  0  0  0  0  0  0
  1  2  1  0  0  0  0
  2  3  1  0  0  0  0
  3  4  2  0  0  0  0
  4  5  2  0  0  0  0
  4  6  2  0  0  0  0
  6  7  1  0  0  0  0
  7  8  1  0  0  0  0
  4  9  1  0  0  0  0
  9 10  1  0  0  0  0
 10 11  1  0  0  0  0
 11 12  1  0  0  0  0
 12 13  2  0  0  0  0
 12 14  2  0  0  0  0
 14 15  1  0  0  0  0
 15 16  1  0  0  0  0
 12 17  2  0  0  0  0
 17 18  1  0  0  0  0
 18 19  1  0  0  0  0
  1 20  1  0  0  0  0
  1 21  1  0  0  0  0
  1 22  1  0  0  0  0
  2 23  1  0  0  0  0
  2 24  1  0  0  0  0
  7 25  1  0  0  0  0
  7 26  1  0  0  0  0
  8 27  1  0  0  0  0
  8 28  1  0  0  0  0
  8 29  1  0  0  0  0
 10 30  1  0  0  0  0
 10 31  1  0  0  0  0
 15 32  1  0  0  0  0
 15 33  1  0  0  0  0
 16 34  1  0  0  0  0
 16 35  1  0  0  0  0
 16 36  1  0  0  0  0
 18 37  1  0  0  0  0
 18 38  1  0  0  0  0
 19 39  1  0  0  0  0
 19 40  1  0  0  0  0
 19 41  1  0  0  0  0
M  END
