 xtb: 6.7.1 (edcfbbe)
          04092505213D

 41 40  0     0  0            999 V2000
    3.4054    1.4358   -1.7581 C   0  0  0  0  0  0  0  0  0  0  0  0
    2.1924    1.9827   -1.0376 C   0  0  0  0  0  0  0  0  0  0  0  0
    2.0842    1.5465    0.3398 O   0  0  0  0  0  0  0  0  0  0  0  0
    2.1295    0.0625    0.8752 P   0  0  0  0  0  0  0  0  0  0  0  0
    1.4785    0.0089    2.7186 S   0  0  0  0  0  0  0  0  0  0  0  0
    3.6576   -0.3180    0.6502 O   0  0  0  0  0  0  0  0  0  0  0  0
    4.1973   -1.6495    0.6898 C   0  0  0  0  0  0  0  0  0  0  0  0
    4.1483   -2.2595    2.0762 C   0  0  0  0  0  0  0  0  0  0  0  0
    1.0879   -1.1193   -0.5720 S   0  0  0  0  0  0  0  0  0  0  0  0
   -0.2699   -1.7458    0.4483 C   0  0  0  0  0  0  0  0  0  0  0  0
   -1.4730   -0.4947    0.9679 S   0  0  0  0  0  0  0  0  0  0  0  0
   -2.1042    0.1750   -0.9596 P   0  0  0  0  0  0  0  0  0  0  0  0
   -1.7367   -0.9839   -2.4918 S   0  0  0  0  0  0  0  0  0  0  0  0
   -1.4119    1.5777   -1.1892 O   0  0  0  0  0  0  0  0  0  0  0  0
   -1.2169    2.6301   -0.2126 C   0  0  0  0  0  0  0  0  0  0  0  0
   -2.4745    3.0219    0.5322 C   0  0  0  0  0  0  0  0  0  0  0  0
   -3.6221    0.5900   -0.7410 O   0  0  0  0  0  0  0  0  0  0  0  0
   -4.6414   -0.2341   -0.1486 C   0  0  0  0  0  0  0  0  0  0  0  0
   -4.7449   -1.6026   -0.7886 C   0  0  0  0  0  0  0  0  0  0  0  0
    3.4828    1.9205   -2.7267 H   0  0  0  0  0  0  0  0  0  0  0  0
    4.3065    1.6320   -1.1833 H   0  0  0  0  0  0  0  0  0  0  0  0
    3.3054    0.3630   -1.9121 H   0  0  0  0  0  0  0  0  0  0  0  0
    1.2750    1.6944   -1.5598 H   0  0  0  0  0  0  0  0  0  0  0  0
    2.2386    3.0692   -0.9467 H   0  0  0  0  0  0  0  0  0  0  0  0
    3.6512   -2.2684   -0.0287 H   0  0  0  0  0  0  0  0  0  0  0  0
    5.2275   -1.5192    0.3530 H   0  0  0  0  0  0  0  0  0  0  0  0
    4.6387   -1.6053    2.7925 H   0  0  0  0  0  0  0  0  0  0  0  0
    3.1177   -2.4020    2.3952 H   0  0  0  0  0  0  0  0  0  0  0  0
    4.6521   -3.2207    2.0633 H   0  0  0  0  0  0  0  0  0  0  0  0
    0.1211   -2.1695    1.3715 H   0  0  0  0  0  0  0  0  0  0  0  0
   -0.7633   -2.4970   -0.1661 H   0  0  0  0  0  0  0  0  0  0  0  0
   -0.4431    2.3059    0.4908 H   0  0  0  0  0  0  0  0  0  0  0  0
   -0.8390    3.4573   -0.8160 H   0  0  0  0  0  0  0  0  0  0  0  0
   -3.2760    3.2405   -0.1683 H   0  0  0  0  0  0  0  0  0  0  0  0
   -2.7894    2.2214    1.1988 H   0  0  0  0  0  0  0  0  0  0  0  0
   -2.2634    3.9060    1.1265 H   0  0  0  0  0  0  0  0  0  0  0  0
   -4.4287   -0.3234    0.9208 H   0  0  0  0  0  0  0  0  0  0  0  0
   -5.5556    0.3436   -0.2965 H   0  0  0  0  0  0  0  0  0  0  0  0
   -4.8767   -1.5097   -1.8640 H   0  0  0  0  0  0  0  0  0  0  0  0
   -3.8372   -2.1752   -0.6037 H   0  0  0  0  0  0  0  0  0  0  0  0
   -5.5912   -2.1346   -0.3660 H   0  0  0  0  0  0  0  0  0  0  0  0
  1  2  1  0  0  0  0
  2  3  1  0  0  0  0
  3  4  2  0  0  0  0
  4  5  2  0  0  0  0
  4  6  2  0  0  0  0
  6  7  1  0  0  0  0
  7  8  1  0  0  0  0
  4  9  1  0  0  0  0
  9 10  1  0  0  0  0
 10 11  1  0  0  0  0
 11 12  1  0  0  0  0
 12 13  2  0  0  0  0
 12 14  2  0  0  0  0
 14 15  1  0  0  0  0
 15 16  1  0  0  0  0
 12 17  2  0  0  0  0
 17 18  1  0  0  0  0
 18 19  1  0  0  0  0
  1 20  1  0  0  0  0
  1 21  1  0  0  0  0
  1 22  1  0  0  0  0
  2 23  1  0  0  0  0
  2 24  1  0  0  0  0
  7 25  1  0  0  0  0
  7 26  1  0  0  0  0
  8 27  1  0  0  0  0
  8 28  1  0  0  0  0
  8 29  1  0  0  0  0
 10 30  1  0  0  0  0
 10 31  1  0  0  0  0
 15 32  1  0  0  0  0
 15 33  1  0  0  0  0
 16 34  1  0  0  0  0
 16 35  1  0  0  0  0
 16 36  1  0  0  0  0
 18 37  1  0  0  0  0
 18 38  1  0  0  0  0
 19 39  1  0  0  0  0
 19 40  1  0  0  0  0
 19 41  1  0  0  0  0
M  END
