 xtb: 6.7.1 (edcfbbe)
          04092505213D

 41 40  0     0  0            999 V2000
    1.8303   -2.8773    0.8997 C   0  0  0  0  0  0  0  0  0  0  0  0
    1.9272   -1.5794    1.6750 C   0  0  0  0  0  0  0  0  0  0  0  0
    2.9077   -0.6798    1.1306 O   0  0  0  0  0  0  0  0  0  0  0  0
    2.7805    0.0813   -0.2623 P   0  0  0  0  0  0  0  0  0  0  0  0
    3.0135   -0.9551   -1.9096 S   0  0  0  0  0  0  0  0  0  0  0  0
    3.9350    1.1421   -0.1424 O   0  0  0  0  0  0  0  0  0  0  0  0
    4.3401    1.8294    1.0672 C   0  0  0  0  0  0  0  0  0  0  0  0
    3.2517    2.7263    1.6167 C   0  0  0  0  0  0  0  0  0  0  0  0
    0.9244    1.1549   -0.1499 S   0  0  0  0  0  0  0  0  0  0  0  0
   -0.0173    0.2304   -1.3825 C   0  0  0  0  0  0  0  0  0  0  0  0
   -1.0248   -1.0822   -0.6591 S   0  0  0  0  0  0  0  0  0  0  0  0
   -2.6775    0.1623   -0.1294 P   0  0  0  0  0  0  0  0  0  0  0  0
   -3.1235    1.5676   -1.4173 S   0  0  0  0  0  0  0  0  0  0  0  0
   -2.3427    0.8207    1.2601 O   0  0  0  0  0  0  0  0  0  0  0  0
   -1.9885    0.0567    2.4424 C   0  0  0  0  0  0  0  0  0  0  0  0
   -0.9791    0.8610    3.2358 C   0  0  0  0  0  0  0  0  0  0  0  0
   -3.7960   -0.8895    0.2799 O   0  0  0  0  0  0  0  0  0  0  0  0
   -4.2144   -2.0170   -0.5122 C   0  0  0  0  0  0  0  0  0  0  0  0
   -4.6338   -1.6256   -1.9135 C   0  0  0  0  0  0  0  0  0  0  0  0
    1.1653   -3.5576    1.4216 H   0  0  0  0  0  0  0  0  0  0  0  0
    1.4343   -2.6980   -0.0986 H   0  0  0  0  0  0  0  0  0  0  0  0
    2.8119   -3.3342    0.8047 H   0  0  0  0  0  0  0  0  0  0  0  0
    2.2756   -1.7509    2.6950 H   0  0  0  0  0  0  0  0  0  0  0  0
    0.9594   -1.0700    1.6956 H   0  0  0  0  0  0  0  0  0  0  0  0
    4.6408    1.0797    1.8011 H   0  0  0  0  0  0  0  0  0  0  0  0
    5.2093    2.4046    0.7448 H   0  0  0  0  0  0  0  0  0  0  0  0
    2.4021    2.1331    1.9498 H   0  0  0  0  0  0  0  0  0  0  0  0
    3.6438    3.2848    2.4610 H   0  0  0  0  0  0  0  0  0  0  0  0
    2.9109    3.4226    0.8545 H   0  0  0  0  0  0  0  0  0  0  0  0
    0.6817   -0.2378   -2.0799 H   0  0  0  0  0  0  0  0  0  0  0  0
   -0.6781    0.9353   -1.8904 H   0  0  0  0  0  0  0  0  0  0  0  0
   -2.9076   -0.1066    3.0074 H   0  0  0  0  0  0  0  0  0  0  0  0
   -1.5817   -0.9099    2.1293 H   0  0  0  0  0  0  0  0  0  0  0  0
   -0.6965    0.3056    4.1241 H   0  0  0  0  0  0  0  0  0  0  0  0
   -0.0971    1.0569    2.6308 H   0  0  0  0  0  0  0  0  0  0  0  0
   -1.4107    1.8141    3.5266 H   0  0  0  0  0  0  0  0  0  0  0  0
   -3.3915   -2.7365   -0.5418 H   0  0  0  0  0  0  0  0  0  0  0  0
   -5.0508   -2.4307    0.0538 H   0  0  0  0  0  0  0  0  0  0  0  0
   -5.4046   -0.8591   -1.8795 H   0  0  0  0  0  0  0  0  0  0  0  0
   -3.7821   -1.2296   -2.4653 H   0  0  0  0  0  0  0  0  0  0  0  0
   -5.0163   -2.4979   -2.4336 H   0  0  0  0  0  0  0  0  0  0  0  0
  1  2  1  0  0  0  0
  2  3  1  0  0  0  0
  3  4  2  0  0  0  0
  4  5  2  0  0  0  0
  4  6  2  0  0  0  0
  6  7  1  0  0  0  0
  7  8  1  0  0  0  0
  4  9  1  0  0  0  0
  9 10  1  0  0  0  0
 10 11  1  0  0  0  0
 11 12  1  0  0  0  0
 12 13  2  0  0  0  0
 12 14  2  0  0  0  0
 14 15  1  0  0  0  0
 15 16  1  0  0  0  0
 12 17  2  0  0  0  0
 17 18  1  0  0  0  0
 18 19  1  0  0  0  0
  1 20  1  0  0  0  0
  1 21  1  0  0  0  0
  1 22  1  0  0  0  0
  2 23  1  0  0  0  0
  2 24  1  0  0  0  0
  7 25  1  0  0  0  0
  7 26  1  0  0  0  0
  8 27  1  0  0  0  0
  8 28  1  0  0  0  0
  8 29  1  0  0  0  0
 10 30  1  0  0  0  0
 10 31  1  0  0  0  0
 15 32  1  0  0  0  0
 15 33  1  0  0  0  0
 16 34  1  0  0  0  0
 16 35  1  0  0  0  0
 16 36  1  0  0  0  0
 18 37  1  0  0  0  0
 18 38  1  0  0  0  0
 19 39  1  0  0  0  0
 19 40  1  0  0  0  0
 19 41  1  0  0  0  0
M  END
