 xtb: 6.7.1 (edcfbbe)
          04092505203D

 41 40  0     0  0            999 V2000
    4.2849   -1.9128   -1.0531 C   0  0  0  0  0  0  0  0  0  0  0  0
    4.6324   -0.6269   -0.3306 C   0  0  0  0  0  0  0  0  0  0  0  0
    3.5747   -0.1847    0.5360 O   0  0  0  0  0  0  0  0  0  0  0  0
    2.1623    0.3036   -0.0112 P   0  0  0  0  0  0  0  0  0  0  0  0
    2.2570    1.3399   -1.6767 S   0  0  0  0  0  0  0  0  0  0  0  0
    1.5839    1.0105    1.2833 O   0  0  0  0  0  0  0  0  0  0  0  0
    1.7534    2.4184    1.5376 C   0  0  0  0  0  0  0  0  0  0  0  0
    3.2081    2.7955    1.7183 C   0  0  0  0  0  0  0  0  0  0  0  0
    0.9933   -1.4533   -0.0074 S   0  0  0  0  0  0  0  0  0  0  0  0
    0.0517   -1.2249   -1.5619 C   0  0  0  0  0  0  0  0  0  0  0  0
   -1.6990   -1.5941   -1.3673 S   0  0  0  0  0  0  0  0  0  0  0  0
   -2.2970    0.0836   -0.1939 P   0  0  0  0  0  0  0  0  0  0  0  0
   -1.1645    1.6765   -0.3279 S   0  0  0  0  0  0  0  0  0  0  0  0
   -2.5090   -0.4491    1.2919 O   0  0  0  0  0  0  0  0  0  0  0  0
   -1.4783   -0.5333    2.2885 C   0  0  0  0  0  0  0  0  0  0  0  0
   -2.1116   -0.2800    3.6421 C   0  0  0  0  0  0  0  0  0  0  0  0
   -3.7666    0.3821   -0.6560 O   0  0  0  0  0  0  0  0  0  0  0  0
   -4.7546   -0.5939   -1.0740 C   0  0  0  0  0  0  0  0  0  0  0  0
   -5.0223   -1.6434   -0.0181 C   0  0  0  0  0  0  0  0  0  0  0  0
    3.9618   -2.6707   -0.3440 H   0  0  0  0  0  0  0  0  0  0  0  0
    3.4819   -1.7299   -1.7663 H   0  0  0  0  0  0  0  0  0  0  0  0
    5.1574   -2.2689   -1.5915 H   0  0  0  0  0  0  0  0  0  0  0  0
    4.8435    0.1702   -1.0506 H   0  0  0  0  0  0  0  0  0  0  0  0
    5.4821   -0.7581    0.3407 H   0  0  0  0  0  0  0  0  0  0  0  0
    1.2994    2.9720    0.7087 H   0  0  0  0  0  0  0  0  0  0  0  0
    1.1734    2.5894    2.4457 H   0  0  0  0  0  0  0  0  0  0  0  0
    3.2742    3.8399    2.0065 H   0  0  0  0  0  0  0  0  0  0  0  0
    3.6626    2.1750    2.4864 H   0  0  0  0  0  0  0  0  0  0  0  0
    3.7472    2.6525    0.7824 H   0  0  0  0  0  0  0  0  0  0  0  0
    0.4212   -1.9334   -2.2989 H   0  0  0  0  0  0  0  0  0  0  0  0
    0.1856   -0.1939   -1.8998 H   0  0  0  0  0  0  0  0  0  0  0  0
   -1.0369   -1.5326    2.2345 H   0  0  0  0  0  0  0  0  0  0  0  0
   -0.7035    0.2095    2.0685 H   0  0  0  0  0  0  0  0  0  0  0  0
   -2.5482    0.7149    3.6688 H   0  0  0  0  0  0  0  0  0  0  0  0
   -2.8907   -1.0128    3.8295 H   0  0  0  0  0  0  0  0  0  0  0  0
   -1.3500   -0.3588    4.4110 H   0  0  0  0  0  0  0  0  0  0  0  0
   -5.6360    0.0187   -1.2695 H   0  0  0  0  0  0  0  0  0  0  0  0
   -4.4064   -1.0535   -2.0022 H   0  0  0  0  0  0  0  0  0  0  0  0
   -5.8348   -2.2812   -0.3522 H   0  0  0  0  0  0  0  0  0  0  0  0
   -4.1351   -2.2536    0.1377 H   0  0  0  0  0  0  0  0  0  0  0  0
   -5.2971   -1.1710    0.9211 H   0  0  0  0  0  0  0  0  0  0  0  0
  1  2  1  0  0  0  0
  2  3  1  0  0  0  0
  3  4  2  0  0  0  0
  4  5  2  0  0  0  0
  4  6  2  0  0  0  0
  6  7  1  0  0  0  0
  7  8  1  0  0  0  0
  4  9  1  0  0  0  0
  9 10  1  0  0  0  0
 10 11  1  0  0  0  0
 11 12  1  0  0  0  0
 12 13  2  0  0  0  0
 12 14  2  0  0  0  0
 14 15  1  0  0  0  0
 15 16  1  0  0  0  0
 12 17  2  0  0  0  0
 17 18  1  0  0  0  0
 18 19  1  0  0  0  0
  1 20  1  0  0  0  0
  1 21  1  0  0  0  0
  1 22  1  0  0  0  0
  2 23  1  0  0  0  0
  2 24  1  0  0  0  0
  7 25  1  0  0  0  0
  7 26  1  0  0  0  0
  8 27  1  0  0  0  0
  8 28  1  0  0  0  0
  8 29  1  0  0  0  0
 10 30  1  0  0  0  0
 10 31  1  0  0  0  0
 15 32  1  0  0  0  0
 15 33  1  0  0  0  0
 16 34  1  0  0  0  0
 16 35  1  0  0  0  0
 16 36  1  0  0  0  0
 18 37  1  0  0  0  0
 18 38  1  0  0  0  0
 19 39  1  0  0  0  0
 19 40  1  0  0  0  0
 19 41  1  0  0  0  0
M  END
