 xtb: 6.7.1 (edcfbbe)
          04092505213D

 41 40  0     0  0            999 V2000
    1.5372   -0.8516   -2.7930 C   0  0  0  0  0  0  0  0  0  0  0  0
    2.1661    0.4156   -2.2479 C   0  0  0  0  0  0  0  0  0  0  0  0
    2.9442    0.1508   -1.0724 O   0  0  0  0  0  0  0  0  0  0  0  0
    2.3530    0.1179    0.3959 P   0  0  0  0  0  0  0  0  0  0  0  0
    1.1006    1.5749    0.8185 S   0  0  0  0  0  0  0  0  0  0  0  0
    3.7661    0.1495    1.1002 O   0  0  0  0  0  0  0  0  0  0  0  0
    4.0395   -0.3300    2.4298 C   0  0  0  0  0  0  0  0  0  0  0  0
    3.1564    0.3155    3.4784 C   0  0  0  0  0  0  0  0  0  0  0  0
    1.6152   -1.8463    0.7709 S   0  0  0  0  0  0  0  0  0  0  0  0
   -0.1007   -1.4781    1.2226 C   0  0  0  0  0  0  0  0  0  0  0  0
   -1.3004   -1.7878   -0.1190 S   0  0  0  0  0  0  0  0  0  0  0  0
   -2.1147    0.1191   -0.5273 P   0  0  0  0  0  0  0  0  0  0  0  0
   -1.3269    1.3058   -1.8845 S   0  0  0  0  0  0  0  0  0  0  0  0
   -2.2199    0.6749    0.9491 O   0  0  0  0  0  0  0  0  0  0  0  0
   -2.5781    2.0488    1.2160 C   0  0  0  0  0  0  0  0  0  0  0  0
   -2.1122    2.3884    2.6158 C   0  0  0  0  0  0  0  0  0  0  0  0
   -3.6409   -0.2106   -0.8524 O   0  0  0  0  0  0  0  0  0  0  0  0
   -4.0939   -0.4745   -2.1883 C   0  0  0  0  0  0  0  0  0  0  0  0
   -3.5553   -1.7918   -2.7077 C   0  0  0  0  0  0  0  0  0  0  0  0
    2.2973   -1.6127   -2.9452 H   0  0  0  0  0  0  0  0  0  0  0  0
    0.7873   -1.2362   -2.1033 H   0  0  0  0  0  0  0  0  0  0  0  0
    1.0506   -0.6247   -3.7363 H   0  0  0  0  0  0  0  0  0  0  0  0
    1.3998    1.1656   -2.0213 H   0  0  0  0  0  0  0  0  0  0  0  0
    2.8806    0.8375   -2.9566 H   0  0  0  0  0  0  0  0  0  0  0  0
    3.9197   -1.4169    2.4350 H   0  0  0  0  0  0  0  0  0  0  0  0
    5.0895   -0.0738    2.5812 H   0  0  0  0  0  0  0  0  0  0  0  0
    3.4688   -0.0120    4.4647 H   0  0  0  0  0  0  0  0  0  0  0  0
    3.2287    1.3991    3.4185 H   0  0  0  0  0  0  0  0  0  0  0  0
    2.1167    0.0308    3.3217 H   0  0  0  0  0  0  0  0  0  0  0  0
   -0.1743   -0.4317    1.5253 H   0  0  0  0  0  0  0  0  0  0  0  0
   -0.3623   -2.1535    2.0317 H   0  0  0  0  0  0  0  0  0  0  0  0
   -2.0931    2.6874    0.4696 H   0  0  0  0  0  0  0  0  0  0  0  0
   -3.6627    2.1359    1.1164 H   0  0  0  0  0  0  0  0  0  0  0  0
   -1.0278    2.3287    2.6671 H   0  0  0  0  0  0  0  0  0  0  0  0
   -2.4235    3.3992    2.8574 H   0  0  0  0  0  0  0  0  0  0  0  0
   -2.5446    1.6941    3.3301 H   0  0  0  0  0  0  0  0  0  0  0  0
   -5.1812   -0.4839   -2.1039 H   0  0  0  0  0  0  0  0  0  0  0  0
   -3.7755    0.3529   -2.8316 H   0  0  0  0  0  0  0  0  0  0  0  0
   -3.9703   -1.9923   -3.6901 H   0  0  0  0  0  0  0  0  0  0  0  0
   -2.4691   -1.7371   -2.7856 H   0  0  0  0  0  0  0  0  0  0  0  0
   -3.8147   -2.6011   -2.0303 H   0  0  0  0  0  0  0  0  0  0  0  0
  1  2  1  0  0  0  0
  2  3  1  0  0  0  0
  3  4  2  0  0  0  0
  4  5  2  0  0  0  0
  4  6  2  0  0  0  0
  6  7  1  0  0  0  0
  7  8  1  0  0  0  0
  4  9  1  0  0  0  0
  9 10  1  0  0  0  0
 10 11  1  0  0  0  0
 11 12  1  0  0  0  0
 12 13  2  0  0  0  0
 12 14  2  0  0  0  0
 14 15  1  0  0  0  0
 15 16  1  0  0  0  0
 12 17  2  0  0  0  0
 17 18  1  0  0  0  0
 18 19  1  0  0  0  0
  1 20  1  0  0  0  0
  1 21  1  0  0  0  0
  1 22  1  0  0  0  0
  2 23  1  0  0  0  0
  2 24  1  0  0  0  0
  7 25  1  0  0  0  0
  7 26  1  0  0  0  0
  8 27  1  0  0  0  0
  8 28  1  0  0  0  0
  8 29  1  0  0  0  0
 10 30  1  0  0  0  0
 10 31  1  0  0  0  0
 15 32  1  0  0  0  0
 15 33  1  0  0  0  0
 16 34  1  0  0  0  0
 16 35  1  0  0  0  0
 16 36  1  0  0  0  0
 18 37  1  0  0  0  0
 18 38  1  0  0  0  0
 19 39  1  0  0  0  0
 19 40  1  0  0  0  0
 19 41  1  0  0  0  0
M  END
