 xtb: 6.7.1 (edcfbbe)
          04092505213D

 41 40  0     0  0            999 V2000
    4.9064   -2.7408   -1.6537 C   0  0  0  0  0  0  0  0  0  0  0  0
    3.9979   -1.5294   -1.7077 C   0  0  0  0  0  0  0  0  0  0  0  0
    3.1009   -1.5979   -0.5800 O   0  0  0  0  0  0  0  0  0  0  0  0
    2.2953   -0.3251   -0.0841 P   0  0  0  0  0  0  0  0  0  0  0  0
    3.3650    1.3023    0.1771 S   0  0  0  0  0  0  0  0  0  0  0  0
    1.5479   -0.8904    1.1892 O   0  0  0  0  0  0  0  0  0  0  0  0
    2.0665   -0.7069    2.5230 C   0  0  0  0  0  0  0  0  0  0  0  0
    3.3120   -1.5372    2.7482 C   0  0  0  0  0  0  0  0  0  0  0  0
    0.7115   -0.1763   -1.4776 S   0  0  0  0  0  0  0  0  0  0  0  0
    0.2034    1.4986   -1.0111 C   0  0  0  0  0  0  0  0  0  0  0  0
   -0.5949    1.5628    0.6144 S   0  0  0  0  0  0  0  0  0  0  0  0
   -2.4836    0.7934    0.0387 P   0  0  0  0  0  0  0  0  0  0  0  0
   -2.9282    1.0102   -1.8636 S   0  0  0  0  0  0  0  0  0  0  0  0
   -3.3146    1.5915    1.1206 O   0  0  0  0  0  0  0  0  0  0  0  0
   -4.6156    1.1894    1.6038 C   0  0  0  0  0  0  0  0  0  0  0  0
   -5.6599    1.1864    0.5064 C   0  0  0  0  0  0  0  0  0  0  0  0
   -2.6222   -0.7014    0.5709 O   0  0  0  0  0  0  0  0  0  0  0  0
   -2.3876   -1.8810   -0.2226 C   0  0  0  0  0  0  0  0  0  0  0  0
   -1.3150   -2.7329    0.4254 C   0  0  0  0  0  0  0  0  0  0  0  0
    5.5008   -2.7246   -0.7447 H   0  0  0  0  0  0  0  0  0  0  0  0
    4.3116   -3.6492   -1.6701 H   0  0  0  0  0  0  0  0  0  0  0  0
    5.5679   -2.7276   -2.5137 H   0  0  0  0  0  0  0  0  0  0  0  0
    3.3972   -1.5201   -2.6212 H   0  0  0  0  0  0  0  0  0  0  0  0
    4.5672   -0.5958   -1.6445 H   0  0  0  0  0  0  0  0  0  0  0  0
    2.2734    0.3578    2.6716 H   0  0  0  0  0  0  0  0  0  0  0  0
    1.2446   -1.0160    3.1696 H   0  0  0  0  0  0  0  0  0  0  0  0
    3.6286   -1.4414    3.7821 H   0  0  0  0  0  0  0  0  0  0  0  0
    3.1134   -2.5814    2.5227 H   0  0  0  0  0  0  0  0  0  0  0  0
    4.1110   -1.1819    2.0984 H   0  0  0  0  0  0  0  0  0  0  0  0
   -0.4960    1.8391   -1.7754 H   0  0  0  0  0  0  0  0  0  0  0  0
    1.0832    2.1400   -0.9579 H   0  0  0  0  0  0  0  0  0  0  0  0
   -4.5240    0.2019    2.0611 H   0  0  0  0  0  0  0  0  0  0  0  0
   -4.8415    1.9341    2.3689 H   0  0  0  0  0  0  0  0  0  0  0  0
   -6.6306    0.9510    0.9315 H   0  0  0  0  0  0  0  0  0  0  0  0
   -5.7043    2.1603    0.0246 H   0  0  0  0  0  0  0  0  0  0  0  0
   -5.4109    0.4417   -0.2487 H   0  0  0  0  0  0  0  0  0  0  0  0
   -3.3414   -2.4128   -0.2548 H   0  0  0  0  0  0  0  0  0  0  0  0
   -2.1095   -1.5846   -1.2392 H   0  0  0  0  0  0  0  0  0  0  0  0
   -0.3675   -2.2009    0.4558 H   0  0  0  0  0  0  0  0  0  0  0  0
   -1.6065   -2.9878    1.4404 H   0  0  0  0  0  0  0  0  0  0  0  0
   -1.1894   -3.6422   -0.1531 H   0  0  0  0  0  0  0  0  0  0  0  0
  1  2  1  0  0  0  0
  2  3  1  0  0  0  0
  3  4  2  0  0  0  0
  4  5  2  0  0  0  0
  4  6  2  0  0  0  0
  6  7  1  0  0  0  0
  7  8  1  0  0  0  0
  4  9  1  0  0  0  0
  9 10  1  0  0  0  0
 10 11  1  0  0  0  0
 11 12  1  0  0  0  0
 12 13  2  0  0  0  0
 12 14  2  0  0  0  0
 14 15  1  0  0  0  0
 15 16  1  0  0  0  0
 12 17  2  0  0  0  0
 17 18  1  0  0  0  0
 18 19  1  0  0  0  0
  1 20  1  0  0  0  0
  1 21  1  0  0  0  0
  1 22  1  0  0  0  0
  2 23  1  0  0  0  0
  2 24  1  0  0  0  0
  7 25  1  0  0  0  0
  7 26  1  0  0  0  0
  8 27  1  0  0  0  0
  8 28  1  0  0  0  0
  8 29  1  0  0  0  0
 10 30  1  0  0  0  0
 10 31  1  0  0  0  0
 15 32  1  0  0  0  0
 15 33  1  0  0  0  0
 16 34  1  0  0  0  0
 16 35  1  0  0  0  0
 16 36  1  0  0  0  0
 18 37  1  0  0  0  0
 18 38  1  0  0  0  0
 19 39  1  0  0  0  0
 19 40  1  0  0  0  0
 19 41  1  0  0  0  0
M  END
