 xtb: 6.7.1 (edcfbbe)
          04092505213D

 41 40  0     0  0            999 V2000
    4.3901    0.5575   -2.2518 C   0  0  0  0  0  0  0  0  0  0  0  0
    4.4534    1.0490   -0.8201 C   0  0  0  0  0  0  0  0  0  0  0  0
    3.8330    0.1319    0.0987 O   0  0  0  0  0  0  0  0  0  0  0  0
    2.2731   -0.1569    0.1116 P   0  0  0  0  0  0  0  0  0  0  0  0
    1.1416    1.4287   -0.1548 S   0  0  0  0  0  0  0  0  0  0  0  0
    2.1107   -0.9198    1.4882 O   0  0  0  0  0  0  0  0  0  0  0  0
    1.6805   -0.2699    2.6990 C   0  0  0  0  0  0  0  0  0  0  0  0
    2.7098    0.7212    3.2002 C   0  0  0  0  0  0  0  0  0  0  0  0
    2.0133   -1.7633   -1.2270 S   0  0  0  0  0  0  0  0  0  0  0  0
    0.2210   -1.6221   -1.4337 C   0  0  0  0  0  0  0  0  0  0  0  0
   -0.6812   -1.7240    0.1525 S   0  0  0  0  0  0  0  0  0  0  0  0
   -2.1041   -0.1858   -0.1206 P   0  0  0  0  0  0  0  0  0  0  0  0
   -2.1154    0.7379   -1.8516 S   0  0  0  0  0  0  0  0  0  0  0  0
   -2.0071    0.7596    1.1585 O   0  0  0  0  0  0  0  0  0  0  0  0
   -1.8454    2.1884    1.1124 C   0  0  0  0  0  0  0  0  0  0  0  0
   -3.1872    2.8769    1.2579 C   0  0  0  0  0  0  0  0  0  0  0  0
   -3.3426   -1.1170    0.2354 O   0  0  0  0  0  0  0  0  0  0  0  0
   -4.6615   -0.6224    0.5423 C   0  0  0  0  0  0  0  0  0  0  0  0
   -5.4353   -0.2590   -0.7100 C   0  0  0  0  0  0  0  0  0  0  0  0
    3.3594    0.5640   -2.6043 H   0  0  0  0  0  0  0  0  0  0  0  0
    4.9811    1.2132   -2.8832 H   0  0  0  0  0  0  0  0  0  0  0  0
    4.7751   -0.4568   -2.3203 H   0  0  0  0  0  0  0  0  0  0  0  0
    3.9585    2.0209   -0.7251 H   0  0  0  0  0  0  0  0  0  0  0  0
    5.4816    1.1185   -0.4628 H   0  0  0  0  0  0  0  0  0  0  0  0
    0.7219    0.2241    2.5052 H   0  0  0  0  0  0  0  0  0  0  0  0
    1.5312   -1.0944    3.3973 H   0  0  0  0  0  0  0  0  0  0  0  0
    3.6727    0.2312    3.3166 H   0  0  0  0  0  0  0  0  0  0  0  0
    2.8145    1.5372    2.4856 H   0  0  0  0  0  0  0  0  0  0  0  0
    2.3894    1.1252    4.1554 H   0  0  0  0  0  0  0  0  0  0  0  0
   -0.0742   -2.4594   -2.0608 H   0  0  0  0  0  0  0  0  0  0  0  0
   -0.0288   -0.6697   -1.9108 H   0  0  0  0  0  0  0  0  0  0  0  0
   -1.1745    2.4281    1.9388 H   0  0  0  0  0  0  0  0  0  0  0  0
   -1.3653    2.4678    0.1698 H   0  0  0  0  0  0  0  0  0  0  0  0
   -3.0304    3.9502    1.2883 H   0  0  0  0  0  0  0  0  0  0  0  0
   -3.8221    2.6382    0.4066 H   0  0  0  0  0  0  0  0  0  0  0  0
   -3.6776    2.5600    2.1746 H   0  0  0  0  0  0  0  0  0  0  0  0
   -5.1324   -1.4536    1.0706 H   0  0  0  0  0  0  0  0  0  0  0  0
   -4.5708    0.2348    1.2146 H   0  0  0  0  0  0  0  0  0  0  0  0
   -6.4397    0.0472   -0.4350 H   0  0  0  0  0  0  0  0  0  0  0  0
   -4.9461    0.5566   -1.2390 H   0  0  0  0  0  0  0  0  0  0  0  0
   -5.4896   -1.1151   -1.3771 H   0  0  0  0  0  0  0  0  0  0  0  0
  1  2  1  0  0  0  0
  2  3  1  0  0  0  0
  3  4  2  0  0  0  0
  4  5  2  0  0  0  0
  4  6  2  0  0  0  0
  6  7  1  0  0  0  0
  7  8  1  0  0  0  0
  4  9  1  0  0  0  0
  9 10  1  0  0  0  0
 10 11  1  0  0  0  0
 11 12  1  0  0  0  0
 12 13  2  0  0  0  0
 12 14  2  0  0  0  0
 14 15  1  0  0  0  0
 15 16  1  0  0  0  0
 12 17  2  0  0  0  0
 17 18  1  0  0  0  0
 18 19  1  0  0  0  0
  1 20  1  0  0  0  0
  1 21  1  0  0  0  0
  1 22  1  0  0  0  0
  2 23  1  0  0  0  0
  2 24  1  0  0  0  0
  7 25  1  0  0  0  0
  7 26  1  0  0  0  0
  8 27  1  0  0  0  0
  8 28  1  0  0  0  0
  8 29  1  0  0  0  0
 10 30  1  0  0  0  0
 10 31  1  0  0  0  0
 15 32  1  0  0  0  0
 15 33  1  0  0  0  0
 16 34  1  0  0  0  0
 16 35  1  0  0  0  0
 16 36  1  0  0  0  0
 18 37  1  0  0  0  0
 18 38  1  0  0  0  0
 19 39  1  0  0  0  0
 19 40  1  0  0  0  0
 19 41  1  0  0  0  0
M  END
