 xtb: 6.7.1 (edcfbbe)
          04092505213D

 41 40  0     0  0            999 V2000
    4.3920    1.0394   -2.5771 C   0  0  0  0  0  0  0  0  0  0  0  0
    4.5916    0.7487   -1.1031 C   0  0  0  0  0  0  0  0  0  0  0  0
    3.4284    1.1810   -0.3491 O   0  0  0  0  0  0  0  0  0  0  0  0
    2.3858    0.2008    0.2968 P   0  0  0  0  0  0  0  0  0  0  0  0
    0.9467    1.2301    1.1232 S   0  0  0  0  0  0  0  0  0  0  0  0
    3.3278   -0.6435    1.2725 O   0  0  0  0  0  0  0  0  0  0  0  0
    2.9843   -1.8938    1.8898 C   0  0  0  0  0  0  0  0  0  0  0  0
    1.9068   -1.7487    2.9460 C   0  0  0  0  0  0  0  0  0  0  0  0
    1.8935   -1.2045   -1.2421 S   0  0  0  0  0  0  0  0  0  0  0  0
    0.1289   -1.4541   -0.9662 C   0  0  0  0  0  0  0  0  0  0  0  0
   -0.8817   -0.0407   -1.5204 S   0  0  0  0  0  0  0  0  0  0  0  0
   -2.3857   -0.1657   -0.0113 P   0  0  0  0  0  0  0  0  0  0  0  0
   -1.8867   -1.0565    1.6561 S   0  0  0  0  0  0  0  0  0  0  0  0
   -3.5612   -0.9820   -0.6741 O   0  0  0  0  0  0  0  0  0  0  0  0
   -4.1937   -0.6184   -1.9253 C   0  0  0  0  0  0  0  0  0  0  0  0
   -5.4822    0.1386   -1.6760 C   0  0  0  0  0  0  0  0  0  0  0  0
   -2.9939    1.2999    0.0213 O   0  0  0  0  0  0  0  0  0  0  0  0
   -2.3202    2.4965    0.4471 C   0  0  0  0  0  0  0  0  0  0  0  0
   -2.3124    2.6237    1.9567 C   0  0  0  0  0  0  0  0  0  0  0  0
    4.1664    2.0924   -2.7198 H   0  0  0  0  0  0  0  0  0  0  0  0
    5.3025    0.7914   -3.1131 H   0  0  0  0  0  0  0  0  0  0  0  0
    3.5722    0.4466   -2.9751 H   0  0  0  0  0  0  0  0  0  0  0  0
    5.4201    1.3273   -0.6916 H   0  0  0  0  0  0  0  0  0  0  0  0
    4.7614   -0.3150   -0.9252 H   0  0  0  0  0  0  0  0  0  0  0  0
    2.6770   -2.5973    1.1093 H   0  0  0  0  0  0  0  0  0  0  0  0
    3.9245   -2.2269    2.3335 H   0  0  0  0  0  0  0  0  0  0  0  0
    1.7638   -2.7002    3.4480 H   0  0  0  0  0  0  0  0  0  0  0  0
    2.1950   -0.9972    3.6767 H   0  0  0  0  0  0  0  0  0  0  0  0
    0.9578   -1.4450    2.5051 H   0  0  0  0  0  0  0  0  0  0  0  0
   -0.0770   -1.6149    0.0958 H   0  0  0  0  0  0  0  0  0  0  0  0
   -0.1342   -2.3290   -1.5559 H   0  0  0  0  0  0  0  0  0  0  0  0
   -3.4915   -0.0261   -2.5192 H   0  0  0  0  0  0  0  0  0  0  0  0
   -4.3840   -1.5720   -2.4210 H   0  0  0  0  0  0  0  0  0  0  0  0
   -5.2767    1.0785   -1.1710 H   0  0  0  0  0  0  0  0  0  0  0  0
   -5.9659    0.3394   -2.6268 H   0  0  0  0  0  0  0  0  0  0  0  0
   -6.1458   -0.4545   -1.0528 H   0  0  0  0  0  0  0  0  0  0  0  0
   -1.2995    2.4992    0.0567 H   0  0  0  0  0  0  0  0  0  0  0  0
   -2.8955    3.2999   -0.0172 H   0  0  0  0  0  0  0  0  0  0  0  0
   -1.8991    3.5887    2.2310 H   0  0  0  0  0  0  0  0  0  0  0  0
   -3.3219    2.5337    2.3489 H   0  0  0  0  0  0  0  0  0  0  0  0
   -1.6907    1.8445    2.3940 H   0  0  0  0  0  0  0  0  0  0  0  0
  1  2  1  0  0  0  0
  2  3  1  0  0  0  0
  3  4  2  0  0  0  0
  4  5  2  0  0  0  0
  4  6  2  0  0  0  0
  6  7  1  0  0  0  0
  7  8  1  0  0  0  0
  4  9  1  0  0  0  0
  9 10  1  0  0  0  0
 10 11  1  0  0  0  0
 11 12  1  0  0  0  0
 12 13  2  0  0  0  0
 12 14  2  0  0  0  0
 14 15  1  0  0  0  0
 15 16  1  0  0  0  0
 12 17  2  0  0  0  0
 17 18  1  0  0  0  0
 18 19  1  0  0  0  0
  1 20  1  0  0  0  0
  1 21  1  0  0  0  0
  1 22  1  0  0  0  0
  2 23  1  0  0  0  0
  2 24  1  0  0  0  0
  7 25  1  0  0  0  0
  7 26  1  0  0  0  0
  8 27  1  0  0  0  0
  8 28  1  0  0  0  0
  8 29  1  0  0  0  0
 10 30  1  0  0  0  0
 10 31  1  0  0  0  0
 15 32  1  0  0  0  0
 15 33  1  0  0  0  0
 16 34  1  0  0  0  0
 16 35  1  0  0  0  0
 16 36  1  0  0  0  0
 18 37  1  0  0  0  0
 18 38  1  0  0  0  0
 19 39  1  0  0  0  0
 19 40  1  0  0  0  0
 19 41  1  0  0  0  0
M  END
