 xtb: 6.7.1 (edcfbbe)
          04092505203D

 41 40  0     0  0            999 V2000
    2.9331   -0.2828   -2.6447 C   0  0  0  0  0  0  0  0  0  0  0  0
    1.6789    0.3162   -2.0463 C   0  0  0  0  0  0  0  0  0  0  0  0
    1.1913   -0.4598   -0.9343 O   0  0  0  0  0  0  0  0  0  0  0  0
    1.9831   -0.5077    0.4474 P   0  0  0  0  0  0  0  0  0  0  0  0
    3.0028    1.1002    0.9307 S   0  0  0  0  0  0  0  0  0  0  0  0
    2.8706   -1.8110    0.2453 O   0  0  0  0  0  0  0  0  0  0  0  0
    4.0087   -2.1060    1.0745 C   0  0  0  0  0  0  0  0  0  0  0  0
    3.6051   -2.4684    2.4892 C   0  0  0  0  0  0  0  0  0  0  0  0
    0.4690   -1.1935    1.7324 S   0  0  0  0  0  0  0  0  0  0  0  0
   -0.4041    0.3733    2.0773 C   0  0  0  0  0  0  0  0  0  0  0  0
   -0.4894    1.5291    0.6854 S   0  0  0  0  0  0  0  0  0  0  0  0
   -1.9347    0.5913   -0.5511 P   0  0  0  0  0  0  0  0  0  0  0  0
   -1.9420    1.1401   -2.4302 S   0  0  0  0  0  0  0  0  0  0  0  0
   -3.3266    0.7811    0.2089 O   0  0  0  0  0  0  0  0  0  0  0  0
   -4.1801    1.9102   -0.0289 C   0  0  0  0  0  0  0  0  0  0  0  0
   -3.5847    3.1973    0.5061 C   0  0  0  0  0  0  0  0  0  0  0  0
   -1.6404   -0.9301   -0.2422 O   0  0  0  0  0  0  0  0  0  0  0  0
   -1.9810   -1.9817   -1.1662 C   0  0  0  0  0  0  0  0  0  0  0  0
   -3.4781   -2.1922   -1.2430 C   0  0  0  0  0  0  0  0  0  0  0  0
    3.7518   -0.2159   -1.9292 H   0  0  0  0  0  0  0  0  0  0  0  0
    2.7665   -1.3270   -2.8959 H   0  0  0  0  0  0  0  0  0  0  0  0
    3.1995    0.2692   -3.5405 H   0  0  0  0  0  0  0  0  0  0  0  0
    0.8491    0.3209   -2.7564 H   0  0  0  0  0  0  0  0  0  0  0  0
    1.8611    1.3399   -1.6998 H   0  0  0  0  0  0  0  0  0  0  0  0
    4.4935   -2.9404    0.5659 H   0  0  0  0  0  0  0  0  0  0  0  0
    4.6701   -1.2335    1.0759 H   0  0  0  0  0  0  0  0  0  0  0  0
    3.1819   -1.5983    2.9891 H   0  0  0  0  0  0  0  0  0  0  0  0
    2.8619   -3.2616    2.4789 H   0  0  0  0  0  0  0  0  0  0  0  0
    4.4808   -2.7992    3.0383 H   0  0  0  0  0  0  0  0  0  0  0  0
    0.1305    0.9117    2.8577 H   0  0  0  0  0  0  0  0  0  0  0  0
   -1.4065    0.0999    2.3978 H   0  0  0  0  0  0  0  0  0  0  0  0
   -4.3556    1.9900   -1.1067 H   0  0  0  0  0  0  0  0  0  0  0  0
   -5.1093    1.6524    0.4810 H   0  0  0  0  0  0  0  0  0  0  0  0
   -3.3494    3.0993    1.5627 H   0  0  0  0  0  0  0  0  0  0  0  0
   -2.6691    3.4364   -0.0351 H   0  0  0  0  0  0  0  0  0  0  0  0
   -4.2953    4.0062    0.3692 H   0  0  0  0  0  0  0  0  0  0  0  0
   -1.5724   -1.7273   -2.1492 H   0  0  0  0  0  0  0  0  0  0  0  0
   -1.4639   -2.8550   -0.7652 H   0  0  0  0  0  0  0  0  0  0  0  0
   -3.6882   -3.0526   -1.8704 H   0  0  0  0  0  0  0  0  0  0  0  0
   -3.8851   -2.3591   -0.2493 H   0  0  0  0  0  0  0  0  0  0  0  0
   -3.9524   -1.3129   -1.6771 H   0  0  0  0  0  0  0  0  0  0  0  0
  1  2  1  0  0  0  0
  2  3  1  0  0  0  0
  3  4  1  0  0  0  0
  4  5  2  0  0  0  0
  4  6  2  0  0  0  0
  6  7  1  0  0  0  0
  7  8  1  0  0  0  0
  4  9  1  0  0  0  0
  9 10  1  0  0  0  0
 10 11  1  0  0  0  0
 11 12  1  0  0  0  0
 12 13  2  0  0  0  0
 12 14  1  0  0  0  0
 14 15  1  0  0  0  0
 15 16  1  0  0  0  0
 12 17  2  0  0  0  0
 17 18  1  0  0  0  0
 18 19  1  0  0  0  0
  1 20  1  0  0  0  0
  1 21  1  0  0  0  0
  1 22  1  0  0  0  0
  2 23  1  0  0  0  0
  2 24  1  0  0  0  0
  7 25  1  0  0  0  0
  7 26  1  0  0  0  0
  8 27  1  0  0  0  0
  8 28  1  0  0  0  0
  8 29  1  0  0  0  0
 10 30  1  0  0  0  0
 10 31  1  0  0  0  0
 15 32  1  0  0  0  0
 15 33  1  0  0  0  0
 16 34  1  0  0  0  0
 16 35  1  0  0  0  0
 16 36  1  0  0  0  0
 18 37  1  0  0  0  0
 18 38  1  0  0  0  0
 19 39  1  0  0  0  0
 19 40  1  0  0  0  0
 19 41  1  0  0  0  0
M  END
