 xtb: 6.7.1 (edcfbbe)
          04092507313D

 38 37  0     0  0            999 V2000
    5.5578   -0.5686   -0.7107 C   0  0  0  0  0  0  0  0  0  0  0  0
    4.7983   -1.6529   -1.4570 C   0  0  0  0  0  0  0  0  0  0  0  0
    3.5653   -1.9767   -0.7843 O   0  0  0  0  0  0  0  0  0  0  0  0
    2.4837   -1.2846   -1.0805 C   0  0  0  0  0  0  0  0  0  0  0  0
    2.4396   -0.3795   -1.8833 O   0  0  0  0  0  0  0  0  0  0  0  0
    1.2829   -1.8079   -0.3132 C   0  0  0  0  0  0  0  0  0  0  0  0
    0.2014   -0.7439   -0.2297 C   0  0  0  0  0  0  0  0  0  0  0  0
    0.0922   -0.2545   -1.2082 H   0  0  0  0  0  0  0  0  0  0  0  0
    0.4864    0.3533    0.7699 C   0  0  0  0  0  0  0  0  0  0  0  0
   -0.4132    0.9604    1.3235 O   0  0  0  0  0  0  0  0  0  0  0  0
    1.7536    0.5799    0.9565 O   0  0  0  0  0  0  0  0  0  0  0  0
    2.1201    1.6558    1.8527 C   0  0  0  0  0  0  0  0  0  0  0  0
    3.6039    1.9158    1.6968 C   0  0  0  0  0  0  0  0  0  0  0  0
   -1.4215   -1.4584    0.2153 S   0  0  0  0  0  0  0  0  0  0  0  0
   -2.5931    0.3025    0.0798 P   0  0  0  0  0  0  0  0  0  0  0  0
   -2.0052    1.7066   -1.1675 S   0  0  0  0  0  0  0  0  0  0  0  0
   -3.9846   -0.3539   -0.3734 O   0  0  0  0  0  0  0  0  0  0  0  0
   -4.1393   -0.9445   -1.6662 C   0  0  0  0  0  0  0  0  0  0  0  0
   -3.1383    0.7167    1.5092 O   0  0  0  0  0  0  0  0  0  0  0  0
   -2.8708    1.9523    2.1755 C   0  0  0  0  0  0  0  0  0  0  0  0
    5.7382   -0.8765    0.3154 H   0  0  0  0  0  0  0  0  0  0  0  0
    6.5081   -0.3917   -1.2034 H   0  0  0  0  0  0  0  0  0  0  0  0
    4.9824    0.3536   -0.7110 H   0  0  0  0  0  0  0  0  0  0  0  0
    5.3542   -2.5905   -1.4718 H   0  0  0  0  0  0  0  0  0  0  0  0
    4.5655   -1.3306   -2.4758 H   0  0  0  0  0  0  0  0  0  0  0  0
    1.6003   -2.1444    0.6724 H   0  0  0  0  0  0  0  0  0  0  0  0
    0.8915   -2.6699   -0.8577 H   0  0  0  0  0  0  0  0  0  0  0  0
    1.5204    2.5341    1.5969 H   0  0  0  0  0  0  0  0  0  0  0  0
    1.8676    1.3429    2.8700 H   0  0  0  0  0  0  0  0  0  0  0  0
    3.8985    2.7111    2.3732 H   0  0  0  0  0  0  0  0  0  0  0  0
    4.1677    1.0181    1.9306 H   0  0  0  0  0  0  0  0  0  0  0  0
    3.8238    2.2171    0.6767 H   0  0  0  0  0  0  0  0  0  0  0  0
   -3.5926   -1.8866   -1.7184 H   0  0  0  0  0  0  0  0  0  0  0  0
   -3.7778   -0.2605   -2.4369 H   0  0  0  0  0  0  0  0  0  0  0  0
   -5.2064   -1.1155   -1.7829 H   0  0  0  0  0  0  0  0  0  0  0  0
   -2.1438    1.7775    2.9660 H   0  0  0  0  0  0  0  0  0  0  0  0
   -3.8210    2.2882    2.5855 H   0  0  0  0  0  0  0  0  0  0  0  0
   -2.4784    2.6889    1.4724 H   0  0  0  0  0  0  0  0  0  0  0  0
  1  2  1  0  0  0  0
  2  3  1  0  0  0  0
  3  4  1  0  0  0  0
  4  5  2  0  0  0  0
  4  6  1  0  0  0  0
  6  7  1  0  0  0  0
  7  8  1  0  0  0  0
  7  9  1  0  0  0  0
  9 10  2  0  0  0  0
  9 11  4  0  0  0  0
 11 12  1  0  0  0  0
 12 13  1  0  0  0  0
  7 14  1  0  0  0  0
 14 15  1  0  0  0  0
 15 16  2  0  0  0  0
 15 17  1  0  0  0  0
 17 18  1  0  0  0  0
 15 19  2  0  0  0  0
 19 20  1  0  0  0  0
  1 21  1  0  0  0  0
  1 22  1  0  0  0  0
  1 23  1  0  0  0  0
  2 24  1  0  0  0  0
  2 25  1  0  0  0  0
  6 26  1  0  0  0  0
  6 27  1  0  0  0  0
 12 28  1  0  0  0  0
 12 29  1  0  0  0  0
 13 30  1  0  0  0  0
 13 31  1  0  0  0  0
 13 32  1  0  0  0  0
 18 33  1  0  0  0  0
 18 34  1  0  0  0  0
 18 35  1  0  0  0  0
 20 36  1  0  0  0  0
 20 37  1  0  0  0  0
 20 38  1  0  0  0  0
M  END
