 xtb: 6.7.1 (edcfbbe)
          04092505203D

 41 40  0     0  0            999 V2000
    4.4764   -0.0632   -1.8502 C   0  0  0  0  0  0  0  0  0  0  0  0
    3.1184   -0.7019   -2.0507 C   0  0  0  0  0  0  0  0  0  0  0  0
    2.5472   -1.1356   -0.8010 O   0  0  0  0  0  0  0  0  0  0  0  0
    2.0194   -0.1225    0.2951 P   0  0  0  0  0  0  0  0  0  0  0  0
    1.3966    1.6322   -0.3622 S   0  0  0  0  0  0  0  0  0  0  0  0
    3.2771    0.0176    1.2607 O   0  0  0  0  0  0  0  0  0  0  0  0
    3.3760    1.0479    2.2560 C   0  0  0  0  0  0  0  0  0  0  0  0
    2.3876    0.8328    3.3843 C   0  0  0  0  0  0  0  0  0  0  0  0
    0.7914   -1.4401    1.3891 S   0  0  0  0  0  0  0  0  0  0  0  0
   -0.2831   -2.1377    0.0843 C   0  0  0  0  0  0  0  0  0  0  0  0
   -0.5548   -1.0612   -1.3473 S   0  0  0  0  0  0  0  0  0  0  0  0
   -1.9723    0.2696   -0.5305 P   0  0  0  0  0  0  0  0  0  0  0  0
   -2.5117    1.7950   -1.6312 S   0  0  0  0  0  0  0  0  0  0  0  0
   -1.2812    0.5859    0.8577 O   0  0  0  0  0  0  0  0  0  0  0  0
   -1.7688    1.6230    1.7345 C   0  0  0  0  0  0  0  0  0  0  0  0
   -2.6421    1.0322    2.8213 C   0  0  0  0  0  0  0  0  0  0  0  0
   -3.1890   -0.6542   -0.0600 O   0  0  0  0  0  0  0  0  0  0  0  0
   -4.3107   -0.9279   -0.9140 C   0  0  0  0  0  0  0  0  0  0  0  0
   -3.9349   -1.8276   -2.0740 C   0  0  0  0  0  0  0  0  0  0  0  0
    4.3685    0.8630   -1.2868 H   0  0  0  0  0  0  0  0  0  0  0  0
    5.1287   -0.7357   -1.2995 H   0  0  0  0  0  0  0  0  0  0  0  0
    4.9162    0.1610   -2.8169 H   0  0  0  0  0  0  0  0  0  0  0  0
    3.1800   -1.6167   -2.6413 H   0  0  0  0  0  0  0  0  0  0  0  0
    2.4238   -0.0013   -2.5265 H   0  0  0  0  0  0  0  0  0  0  0  0
    4.4080    0.9836    2.6031 H   0  0  0  0  0  0  0  0  0  0  0  0
    3.2048    2.0154    1.7714 H   0  0  0  0  0  0  0  0  0  0  0  0
    2.5142   -0.1576    3.8137 H   0  0  0  0  0  0  0  0  0  0  0  0
    2.5413    1.5854    4.1510 H   0  0  0  0  0  0  0  0  0  0  0  0
    1.3706    0.9175    3.0008 H   0  0  0  0  0  0  0  0  0  0  0  0
   -1.2354   -2.3660    0.5587 H   0  0  0  0  0  0  0  0  0  0  0  0
    0.1912   -3.0329   -0.3111 H   0  0  0  0  0  0  0  0  0  0  0  0
   -0.8686    2.0873    2.1445 H   0  0  0  0  0  0  0  0  0  0  0  0
   -2.3086    2.3648    1.1360 H   0  0  0  0  0  0  0  0  0  0  0  0
   -3.5308    0.5825    2.3856 H   0  0  0  0  0  0  0  0  0  0  0  0
   -2.0903    0.2699    3.3651 H   0  0  0  0  0  0  0  0  0  0  0  0
   -2.9381    1.8213    3.5051 H   0  0  0  0  0  0  0  0  0  0  0  0
   -5.0376   -1.4020   -0.2531 H   0  0  0  0  0  0  0  0  0  0  0  0
   -4.7034    0.0254   -1.2817 H   0  0  0  0  0  0  0  0  0  0  0  0
   -4.8250   -2.0609   -2.6493 H   0  0  0  0  0  0  0  0  0  0  0  0
   -3.2213   -1.3172   -2.7207 H   0  0  0  0  0  0  0  0  0  0  0  0
   -3.4862   -2.7500   -1.7145 H   0  0  0  0  0  0  0  0  0  0  0  0
  1  2  1  0  0  0  0
  2  3  1  0  0  0  0
  3  4  2  0  0  0  0
  4  5  2  0  0  0  0
  4  6  2  0  0  0  0
  6  7  1  0  0  0  0
  7  8  1  0  0  0  0
  4  9  1  0  0  0  0
  9 10  1  0  0  0  0
 10 11  1  0  0  0  0
 11 12  1  0  0  0  0
 12 13  2  0  0  0  0
 12 14  2  0  0  0  0
 14 15  1  0  0  0  0
 15 16  1  0  0  0  0
 12 17  2  0  0  0  0
 17 18  1  0  0  0  0
 18 19  1  0  0  0  0
  1 20  1  0  0  0  0
  1 21  1  0  0  0  0
  1 22  1  0  0  0  0
  2 23  1  0  0  0  0
  2 24  1  0  0  0  0
  7 25  1  0  0  0  0
  7 26  1  0  0  0  0
  8 27  1  0  0  0  0
  8 28  1  0  0  0  0
  8 29  1  0  0  0  0
 10 30  1  0  0  0  0
 10 31  1  0  0  0  0
 15 32  1  0  0  0  0
 15 33  1  0  0  0  0
 16 34  1  0  0  0  0
 16 35  1  0  0  0  0
 16 36  1  0  0  0  0
 18 37  1  0  0  0  0
 18 38  1  0  0  0  0
 19 39  1  0  0  0  0
 19 40  1  0  0  0  0
 19 41  1  0  0  0  0
M  END
