 xtb: 6.7.1 (edcfbbe)
          04092505213D

 41 40  0     0  0            999 V2000
    2.8880    0.5688    3.1810 C   0  0  0  0  0  0  0  0  0  0  0  0
    2.2182    1.4956    2.1892 C   0  0  0  0  0  0  0  0  0  0  0  0
    1.5224    0.7758    1.1427 O   0  0  0  0  0  0  0  0  0  0  0  0
    2.2127   -0.2679    0.1742 P   0  0  0  0  0  0  0  0  0  0  0  0
    2.5065   -2.0935    0.8393 S   0  0  0  0  0  0  0  0  0  0  0  0
    3.5056    0.5309   -0.2880 O   0  0  0  0  0  0  0  0  0  0  0  0
    4.5382   -0.0798   -1.0900 C   0  0  0  0  0  0  0  0  0  0  0  0
    5.6802   -0.5568   -0.2138 C   0  0  0  0  0  0  0  0  0  0  0  0
    0.9271   -0.1699   -1.5116 S   0  0  0  0  0  0  0  0  0  0  0  0
   -0.1799   -1.5127   -1.0075 C   0  0  0  0  0  0  0  0  0  0  0  0
   -1.2009   -1.0766    0.4173 S   0  0  0  0  0  0  0  0  0  0  0  0
   -2.4217    0.3473   -0.6101 P   0  0  0  0  0  0  0  0  0  0  0  0
   -2.8238   -0.0547   -2.4783 S   0  0  0  0  0  0  0  0  0  0  0  0
   -1.6733    1.7273   -0.4565 O   0  0  0  0  0  0  0  0  0  0  0  0
   -1.3231    2.3246    0.8144 C   0  0  0  0  0  0  0  0  0  0  0  0
   -2.3809    3.3136    1.2585 C   0  0  0  0  0  0  0  0  0  0  0  0
   -3.6777    0.5214    0.3494 O   0  0  0  0  0  0  0  0  0  0  0  0
   -4.8488   -0.3101    0.2467 C   0  0  0  0  0  0  0  0  0  0  0  0
   -4.5678   -1.7540    0.6075 C   0  0  0  0  0  0  0  0  0  0  0  0
    2.1650   -0.1316    3.5928 H   0  0  0  0  0  0  0  0  0  0  0  0
    3.6763   -0.0003    2.6901 H   0  0  0  0  0  0  0  0  0  0  0  0
    3.3215    1.1542    3.9858 H   0  0  0  0  0  0  0  0  0  0  0  0
    2.9465    2.1590    1.7184 H   0  0  0  0  0  0  0  0  0  0  0  0
    1.4283    2.0821    2.6617 H   0  0  0  0  0  0  0  0  0  0  0  0
    4.1114   -0.9086   -1.6608 H   0  0  0  0  0  0  0  0  0  0  0  0
    4.8599    0.7066   -1.7750 H   0  0  0  0  0  0  0  0  0  0  0  0
    6.4736   -0.9462   -0.8434 H   0  0  0  0  0  0  0  0  0  0  0  0
    6.0655    0.2661    0.3817 H   0  0  0  0  0  0  0  0  0  0  0  0
    5.3371   -1.3470    0.4507 H   0  0  0  0  0  0  0  0  0  0  0  0
    0.4109   -2.3822   -0.7176 H   0  0  0  0  0  0  0  0  0  0  0  0
   -0.8199   -1.7266   -1.8636 H   0  0  0  0  0  0  0  0  0  0  0  0
   -1.1839    1.5290    1.5523 H   0  0  0  0  0  0  0  0  0  0  0  0
   -0.3684    2.8190    0.6233 H   0  0  0  0  0  0  0  0  0  0  0  0
   -3.3194    2.8012    1.4509 H   0  0  0  0  0  0  0  0  0  0  0  0
   -2.0480    3.8063    2.1667 H   0  0  0  0  0  0  0  0  0  0  0  0
   -2.5397    4.0582    0.4832 H   0  0  0  0  0  0  0  0  0  0  0  0
   -5.5536    0.1481    0.9421 H   0  0  0  0  0  0  0  0  0  0  0  0
   -5.2321   -0.2370   -0.7755 H   0  0  0  0  0  0  0  0  0  0  0  0
   -4.0747   -1.8156    1.5745 H   0  0  0  0  0  0  0  0  0  0  0  0
   -5.5041   -2.3016    0.6440 H   0  0  0  0  0  0  0  0  0  0  0  0
   -3.9241   -2.2082   -0.1441 H   0  0  0  0  0  0  0  0  0  0  0  0
  1  2  1  0  0  0  0
  2  3  1  0  0  0  0
  3  4  2  0  0  0  0
  4  5  2  0  0  0  0
  4  6  2  0  0  0  0
  6  7  1  0  0  0  0
  7  8  1  0  0  0  0
  4  9  1  0  0  0  0
  9 10  1  0  0  0  0
 10 11  1  0  0  0  0
 11 12  1  0  0  0  0
 12 13  2  0  0  0  0
 12 14  2  0  0  0  0
 14 15  1  0  0  0  0
 15 16  1  0  0  0  0
 12 17  2  0  0  0  0
 17 18  1  0  0  0  0
 18 19  1  0  0  0  0
  1 20  1  0  0  0  0
  1 21  1  0  0  0  0
  1 22  1  0  0  0  0
  2 23  1  0  0  0  0
  2 24  1  0  0  0  0
  7 25  1  0  0  0  0
  7 26  1  0  0  0  0
  8 27  1  0  0  0  0
  8 28  1  0  0  0  0
  8 29  1  0  0  0  0
 10 30  1  0  0  0  0
 10 31  1  0  0  0  0
 15 32  1  0  0  0  0
 15 33  1  0  0  0  0
 16 34  1  0  0  0  0
 16 35  1  0  0  0  0
 16 36  1  0  0  0  0
 18 37  1  0  0  0  0
 18 38  1  0  0  0  0
 19 39  1  0  0  0  0
 19 40  1  0  0  0  0
 19 41  1  0  0  0  0
M  END
