 xtb: 6.7.1 (edcfbbe)
          04092505213D

 41 40  0     0  0            999 V2000
    4.3774   -0.4875   -2.4659 C   0  0  0  0  0  0  0  0  0  0  0  0
    4.7144   -0.8254   -1.0283 C   0  0  0  0  0  0  0  0  0  0  0  0
    3.5702   -1.3194   -0.3106 O   0  0  0  0  0  0  0  0  0  0  0  0
    2.3590   -0.3774    0.1047 P   0  0  0  0  0  0  0  0  0  0  0  0
    2.8867    1.4375    0.6478 S   0  0  0  0  0  0  0  0  0  0  0  0
    1.5959   -1.2931    1.1512 O   0  0  0  0  0  0  0  0  0  0  0  0
    2.2257   -1.9779    2.2556 C   0  0  0  0  0  0  0  0  0  0  0  0
    2.9014   -1.0260    3.2203 C   0  0  0  0  0  0  0  0  0  0  0  0
    0.9777   -0.4692   -1.4913 S   0  0  0  0  0  0  0  0  0  0  0  0
    0.0203    1.0012   -1.0285 C   0  0  0  0  0  0  0  0  0  0  0  0
   -0.7793    0.8582    0.5934 S   0  0  0  0  0  0  0  0  0  0  0  0
   -2.7650    0.3329    0.0040 P   0  0  0  0  0  0  0  0  0  0  0  0
   -3.1436    0.3291   -1.9225 S   0  0  0  0  0  0  0  0  0  0  0  0
   -3.6828    1.2750    0.8879 O   0  0  0  0  0  0  0  0  0  0  0  0
   -4.1113    2.5728    0.4393 C   0  0  0  0  0  0  0  0  0  0  0  0
   -2.9640    3.5569    0.3227 C   0  0  0  0  0  0  0  0  0  0  0  0
   -3.0980   -0.9940    0.8025 O   0  0  0  0  0  0  0  0  0  0  0  0
   -2.9888   -2.3101    0.2332 C   0  0  0  0  0  0  0  0  0  0  0  0
   -1.5578   -2.6792   -0.1019 C   0  0  0  0  0  0  0  0  0  0  0  0
    3.7031    0.3670   -2.4993 H   0  0  0  0  0  0  0  0  0  0  0  0
    5.2887   -0.2376   -2.9996 H   0  0  0  0  0  0  0  0  0  0  0  0
    3.8941   -1.3324   -2.9496 H   0  0  0  0  0  0  0  0  0  0  0  0
    5.0967    0.0572   -0.5050 H   0  0  0  0  0  0  0  0  0  0  0  0
    5.4371   -1.6399   -0.9637 H   0  0  0  0  0  0  0  0  0  0  0  0
    1.3980   -2.5050    2.7338 H   0  0  0  0  0  0  0  0  0  0  0  0
    2.9396   -2.6977    1.8492 H   0  0  0  0  0  0  0  0  0  0  0  0
    3.7366   -0.5244    2.7335 H   0  0  0  0  0  0  0  0  0  0  0  0
    2.1970   -0.2693    3.5590 H   0  0  0  0  0  0  0  0  0  0  0  0
    3.2719   -1.5817    4.0760 H   0  0  0  0  0  0  0  0  0  0  0  0
   -0.7388    1.1301   -1.8022 H   0  0  0  0  0  0  0  0  0  0  0  0
    0.6924    1.8561   -0.9739 H   0  0  0  0  0  0  0  0  0  0  0  0
   -4.6167    2.4566   -0.5249 H   0  0  0  0  0  0  0  0  0  0  0  0
   -4.8304    2.8845    1.1982 H   0  0  0  0  0  0  0  0  0  0  0  0
   -2.3917    3.5830    1.2468 H   0  0  0  0  0  0  0  0  0  0  0  0
   -2.3024    3.2670   -0.4926 H   0  0  0  0  0  0  0  0  0  0  0  0
   -3.3608    4.5461    0.1171 H   0  0  0  0  0  0  0  0  0  0  0  0
   -3.4014   -2.9592    1.0072 H   0  0  0  0  0  0  0  0  0  0  0  0
   -3.6153   -2.3564   -0.6630 H   0  0  0  0  0  0  0  0  0  0  0  0
   -1.2073   -2.0907   -0.9492 H   0  0  0  0  0  0  0  0  0  0  0  0
   -0.9064   -2.4903    0.7489 H   0  0  0  0  0  0  0  0  0  0  0  0
   -1.5072   -3.7307   -0.3656 H   0  0  0  0  0  0  0  0  0  0  0  0
  1  2  1  0  0  0  0
  2  3  1  0  0  0  0
  3  4  2  0  0  0  0
  4  5  2  0  0  0  0
  4  6  2  0  0  0  0
  6  7  1  0  0  0  0
  7  8  1  0  0  0  0
  4  9  1  0  0  0  0
  9 10  1  0  0  0  0
 10 11  1  0  0  0  0
 11 12  1  0  0  0  0
 12 13  2  0  0  0  0
 12 14  2  0  0  0  0
 14 15  1  0  0  0  0
 15 16  1  0  0  0  0
 12 17  2  0  0  0  0
 17 18  1  0  0  0  0
 18 19  1  0  0  0  0
  1 20  1  0  0  0  0
  1 21  1  0  0  0  0
  1 22  1  0  0  0  0
  2 23  1  0  0  0  0
  2 24  1  0  0  0  0
  7 25  1  0  0  0  0
  7 26  1  0  0  0  0
  8 27  1  0  0  0  0
  8 28  1  0  0  0  0
  8 29  1  0  0  0  0
 10 30  1  0  0  0  0
 10 31  1  0  0  0  0
 15 32  1  0  0  0  0
 15 33  1  0  0  0  0
 16 34  1  0  0  0  0
 16 35  1  0  0  0  0
 16 36  1  0  0  0  0
 18 37  1  0  0  0  0
 18 38  1  0  0  0  0
 19 39  1  0  0  0  0
 19 40  1  0  0  0  0
 19 41  1  0  0  0  0
M  END
