 xtb: 6.7.1 (edcfbbe)
          04092505213D

 41 40  0     0  0            999 V2000
    3.7486   -0.6163    1.8880 C   0  0  0  0  0  0  0  0  0  0  0  0
    4.2409   -0.7309    0.4603 C   0  0  0  0  0  0  0  0  0  0  0  0
    3.6422    0.2483   -0.4249 O   0  0  0  0  0  0  0  0  0  0  0  0
    2.0894    0.4090   -0.7192 P   0  0  0  0  0  0  0  0  0  0  0  0
    1.8586    1.4147   -2.3814 S   0  0  0  0  0  0  0  0  0  0  0  0
    1.4418    1.0728    0.5831 O   0  0  0  0  0  0  0  0  0  0  0  0
    1.6075    2.4820    0.8293 C   0  0  0  0  0  0  0  0  0  0  0  0
    1.0154    2.7817    2.1898 C   0  0  0  0  0  0  0  0  0  0  0  0
    1.3260   -1.5387   -0.6248 S   0  0  0  0  0  0  0  0  0  0  0  0
   -0.0395   -1.3987   -1.8249 C   0  0  0  0  0  0  0  0  0  0  0  0
   -1.6427   -1.7726   -1.0944 S   0  0  0  0  0  0  0  0  0  0  0  0
   -1.7971   -0.0639    0.1744 P   0  0  0  0  0  0  0  0  0  0  0  0
   -1.4369    1.6232   -0.7590 S   0  0  0  0  0  0  0  0  0  0  0  0
   -0.8921   -0.2641    1.4424 O   0  0  0  0  0  0  0  0  0  0  0  0
   -1.1663   -1.1401    2.5674 C   0  0  0  0  0  0  0  0  0  0  0  0
   -1.1503   -2.6055    2.1873 C   0  0  0  0  0  0  0  0  0  0  0  0
   -3.2596   -0.2116    0.7713 O   0  0  0  0  0  0  0  0  0  0  0  0
   -4.4261   -0.0128   -0.0530 C   0  0  0  0  0  0  0  0  0  0  0  0
   -5.6204    0.1489    0.8651 C   0  0  0  0  0  0  0  0  0  0  0  0
    2.6803   -0.8193    1.9340 H   0  0  0  0  0  0  0  0  0  0  0  0
    4.2736   -1.3427    2.5005 H   0  0  0  0  0  0  0  0  0  0  0  0
    3.9369    0.3820    2.2759 H   0  0  0  0  0  0  0  0  0  0  0  0
    4.0329   -1.7245    0.0559 H   0  0  0  0  0  0  0  0  0  0  0  0
    5.3076   -0.5148    0.3817 H   0  0  0  0  0  0  0  0  0  0  0  0
    2.6744    2.7243    0.7831 H   0  0  0  0  0  0  0  0  0  0  0  0
    1.0878    3.0313    0.0367 H   0  0  0  0  0  0  0  0  0  0  0  0
   -0.0368    2.5087    2.1925 H   0  0  0  0  0  0  0  0  0  0  0  0
    1.5312    2.2129    2.9578 H   0  0  0  0  0  0  0  0  0  0  0  0
    1.1116    3.8430    2.3939 H   0  0  0  0  0  0  0  0  0  0  0  0
    0.1210   -2.1396   -2.6039 H   0  0  0  0  0  0  0  0  0  0  0  0
   -0.0369   -0.3858   -2.2386 H   0  0  0  0  0  0  0  0  0  0  0  0
   -0.3614   -0.8982    3.2635 H   0  0  0  0  0  0  0  0  0  0  0  0
   -2.1284   -0.8534    2.9946 H   0  0  0  0  0  0  0  0  0  0  0  0
   -0.2319   -2.8518    1.6587 H   0  0  0  0  0  0  0  0  0  0  0  0
   -1.2113   -3.2018    3.0925 H   0  0  0  0  0  0  0  0  0  0  0  0
   -1.9976   -2.8451    1.5489 H   0  0  0  0  0  0  0  0  0  0  0  0
   -4.2682    0.8772   -0.6710 H   0  0  0  0  0  0  0  0  0  0  0  0
   -4.5350   -0.8844   -0.7036 H   0  0  0  0  0  0  0  0  0  0  0  0
   -6.5129    0.2898    0.2645 H   0  0  0  0  0  0  0  0  0  0  0  0
   -5.7382   -0.7374    1.4816 H   0  0  0  0  0  0  0  0  0  0  0  0
   -5.4826    1.0129    1.5092 H   0  0  0  0  0  0  0  0  0  0  0  0
  1  2  1  0  0  0  0
  2  3  1  0  0  0  0
  3  4  2  0  0  0  0
  4  5  2  0  0  0  0
  4  6  1  0  0  0  0
  6  7  1  0  0  0  0
  7  8  1  0  0  0  0
  4  9  1  0  0  0  0
  9 10  1  0  0  0  0
 10 11  1  0  0  0  0
 11 12  1  0  0  0  0
 12 13  2  0  0  0  0
 12 14  2  0  0  0  0
 14 15  1  0  0  0  0
 15 16  1  0  0  0  0
 12 17  2  0  0  0  0
 17 18  1  0  0  0  0
 18 19  1  0  0  0  0
  1 20  1  0  0  0  0
  1 21  1  0  0  0  0
  1 22  1  0  0  0  0
  2 23  1  0  0  0  0
  2 24  1  0  0  0  0
  7 25  1  0  0  0  0
  7 26  1  0  0  0  0
  8 27  1  0  0  0  0
  8 28  1  0  0  0  0
  8 29  1  0  0  0  0
 10 30  1  0  0  0  0
 10 31  1  0  0  0  0
 15 32  1  0  0  0  0
 15 33  1  0  0  0  0
 16 34  1  0  0  0  0
 16 35  1  0  0  0  0
 16 36  1  0  0  0  0
 18 37  1  0  0  0  0
 18 38  1  0  0  0  0
 19 39  1  0  0  0  0
 19 40  1  0  0  0  0
 19 41  1  0  0  0  0
M  END
