 xtb: 6.7.1 (edcfbbe)
          04092505203D

 41 40  0     0  0            999 V2000
    4.2877    2.1055   -0.6090 C   0  0  0  0  0  0  0  0  0  0  0  0
    3.0887    1.3121   -1.0872 C   0  0  0  0  0  0  0  0  0  0  0  0
    2.0690    1.2669   -0.0607 O   0  0  0  0  0  0  0  0  0  0  0  0
    1.8299   -0.0026    0.8476 P   0  0  0  0  0  0  0  0  0  0  0  0
    0.4128    0.3234    2.1537 S   0  0  0  0  0  0  0  0  0  0  0  0
    3.3014   -0.2365    1.4119 O   0  0  0  0  0  0  0  0  0  0  0  0
    3.7842   -1.4484    2.0183 C   0  0  0  0  0  0  0  0  0  0  0  0
    2.9175   -1.9231    3.1656 C   0  0  0  0  0  0  0  0  0  0  0  0
    1.5788   -1.6810   -0.4496 S   0  0  0  0  0  0  0  0  0  0  0  0
   -0.1778   -2.0271   -0.2068 C   0  0  0  0  0  0  0  0  0  0  0  0
   -1.2053   -1.6033   -1.6547 S   0  0  0  0  0  0  0  0  0  0  0  0
   -2.0193    0.2346   -1.0412 P   0  0  0  0  0  0  0  0  0  0  0  0
   -3.3689    1.0124   -2.2262 S   0  0  0  0  0  0  0  0  0  0  0  0
   -0.6816    1.0804   -0.8610 O   0  0  0  0  0  0  0  0  0  0  0  0
   -0.7320    2.5237   -0.8565 C   0  0  0  0  0  0  0  0  0  0  0  0
   -1.5141    3.0692    0.3188 C   0  0  0  0  0  0  0  0  0  0  0  0
   -2.4855    0.0212    0.4675 O   0  0  0  0  0  0  0  0  0  0  0  0
   -3.8301   -0.3588    0.8017 C   0  0  0  0  0  0  0  0  0  0  0  0
   -4.1088   -1.8097    0.4630 C   0  0  0  0  0  0  0  0  0  0  0  0
    5.0152    2.1683   -1.4121 H   0  0  0  0  0  0  0  0  0  0  0  0
    3.9819    3.1078   -0.3221 H   0  0  0  0  0  0  0  0  0  0  0  0
    4.7407    1.6192    0.2507 H   0  0  0  0  0  0  0  0  0  0  0  0
    3.3710    0.2905   -1.3576 H   0  0  0  0  0  0  0  0  0  0  0  0
    2.6079    1.7920   -1.9426 H   0  0  0  0  0  0  0  0  0  0  0  0
    3.8514   -2.2149    1.2414 H   0  0  0  0  0  0  0  0  0  0  0  0
    4.7850   -1.1814    2.3625 H   0  0  0  0  0  0  0  0  0  0  0  0
    2.7914   -1.1308    3.8998 H   0  0  0  0  0  0  0  0  0  0  0  0
    1.9329   -2.2121    2.8013 H   0  0  0  0  0  0  0  0  0  0  0  0
    3.3855   -2.7805    3.6386 H   0  0  0  0  0  0  0  0  0  0  0  0
   -0.5290   -1.4723    0.6676 H   0  0  0  0  0  0  0  0  0  0  0  0
   -0.2766   -3.1009   -0.0742 H   0  0  0  0  0  0  0  0  0  0  0  0
    0.3160    2.8200   -0.8084 H   0  0  0  0  0  0  0  0  0  0  0  0
   -1.1758    2.8494   -1.8026 H   0  0  0  0  0  0  0  0  0  0  0  0
   -2.5672    2.8092    0.2193 H   0  0  0  0  0  0  0  0  0  0  0  0
   -1.1342    2.6497    1.2479 H   0  0  0  0  0  0  0  0  0  0  0  0
   -1.4172    4.1500    0.3431 H   0  0  0  0  0  0  0  0  0  0  0  0
   -3.8962   -0.1725    1.8745 H   0  0  0  0  0  0  0  0  0  0  0  0
   -4.5193    0.3002    0.2634 H   0  0  0  0  0  0  0  0  0  0  0  0
   -5.1114   -2.0658    0.7900 H   0  0  0  0  0  0  0  0  0  0  0  0
   -4.0397   -1.9601   -0.6141 H   0  0  0  0  0  0  0  0  0  0  0  0
   -3.3929   -2.4601    0.9588 H   0  0  0  0  0  0  0  0  0  0  0  0
  1  2  1  0  0  0  0
  2  3  1  0  0  0  0
  3  4  2  0  0  0  0
  4  5  2  0  0  0  0
  4  6  2  0  0  0  0
  6  7  1  0  0  0  0
  7  8  1  0  0  0  0
  4  9  1  0  0  0  0
  9 10  1  0  0  0  0
 10 11  1  0  0  0  0
 11 12  1  0  0  0  0
 12 13  2  0  0  0  0
 12 14  1  0  0  0  0
 14 15  1  0  0  0  0
 15 16  1  0  0  0  0
 12 17  2  0  0  0  0
 17 18  1  0  0  0  0
 18 19  1  0  0  0  0
  1 20  1  0  0  0  0
  1 21  1  0  0  0  0
  1 22  1  0  0  0  0
  2 23  1  0  0  0  0
  2 24  1  0  0  0  0
  7 25  1  0  0  0  0
  7 26  1  0  0  0  0
  8 27  1  0  0  0  0
  8 28  1  0  0  0  0
  8 29  1  0  0  0  0
 10 30  1  0  0  0  0
 10 31  1  0  0  0  0
 15 32  1  0  0  0  0
 15 33  1  0  0  0  0
 16 34  1  0  0  0  0
 16 35  1  0  0  0  0
 16 36  1  0  0  0  0
 18 37  1  0  0  0  0
 18 38  1  0  0  0  0
 19 39  1  0  0  0  0
 19 40  1  0  0  0  0
 19 41  1  0  0  0  0
M  END
