 xtb: 6.7.1 (edcfbbe)
          04092505203D

 41 40  0     0  0            999 V2000
    3.4186   -1.6130   -2.6793 C   0  0  0  0  0  0  0  0  0  0  0  0
    4.1384   -1.1806   -1.4198 C   0  0  0  0  0  0  0  0  0  0  0  0
    3.5172   -0.0504   -0.7776 O   0  0  0  0  0  0  0  0  0  0  0  0
    1.9775    0.0548   -0.3999 P   0  0  0  0  0  0  0  0  0  0  0  0
    0.7498    0.5405   -1.8418 S   0  0  0  0  0  0  0  0  0  0  0  0
    1.9621    1.1861    0.6938 O   0  0  0  0  0  0  0  0  0  0  0  0
    2.7856    1.1933    1.8853 C   0  0  0  0  0  0  0  0  0  0  0  0
    4.0049    2.0687    1.6830 C   0  0  0  0  0  0  0  0  0  0  0  0
    1.6630   -1.7881    0.6256 S   0  0  0  0  0  0  0  0  0  0  0  0
    0.0180   -1.4910    1.3150 C   0  0  0  0  0  0  0  0  0  0  0  0
   -1.3298   -1.5691    0.0946 S   0  0  0  0  0  0  0  0  0  0  0  0
   -2.1364    0.3934    0.3174 P   0  0  0  0  0  0  0  0  0  0  0  0
   -1.1778    1.5934    1.5280 S   0  0  0  0  0  0  0  0  0  0  0  0
   -3.6687    0.1004    0.6616 O   0  0  0  0  0  0  0  0  0  0  0  0
   -4.1489   -0.7899    1.6844 C   0  0  0  0  0  0  0  0  0  0  0  0
   -3.6921   -0.3920    3.0729 C   0  0  0  0  0  0  0  0  0  0  0  0
   -2.2962    1.0384   -1.1041 O   0  0  0  0  0  0  0  0  0  0  0  0
   -2.9237    0.3528   -2.2183 C   0  0  0  0  0  0  0  0  0  0  0  0
   -2.5636    1.1047   -3.4812 C   0  0  0  0  0  0  0  0  0  0  0  0
    3.3266   -0.7780   -3.3702 H   0  0  0  0  0  0  0  0  0  0  0  0
    3.9737   -2.4155   -3.1543 H   0  0  0  0  0  0  0  0  0  0  0  0
    2.4176   -1.9683   -2.4370 H   0  0  0  0  0  0  0  0  0  0  0  0
    5.1479   -0.8281   -1.6389 H   0  0  0  0  0  0  0  0  0  0  0  0
    4.1783   -2.0000   -0.6968 H   0  0  0  0  0  0  0  0  0  0  0  0
    2.1300    1.5925    2.6626 H   0  0  0  0  0  0  0  0  0  0  0  0
    3.0720    0.1660    2.1285 H   0  0  0  0  0  0  0  0  0  0  0  0
    3.6973    3.0752    1.4125 H   0  0  0  0  0  0  0  0  0  0  0  0
    4.5740    2.1029    2.6067 H   0  0  0  0  0  0  0  0  0  0  0  0
    4.6286    1.6681    0.8880 H   0  0  0  0  0  0  0  0  0  0  0  0
   -0.0121   -0.5060    1.7923 H   0  0  0  0  0  0  0  0  0  0  0  0
   -0.1386   -2.2912    2.0340 H   0  0  0  0  0  0  0  0  0  0  0  0
   -5.2341   -0.7239    1.5891 H   0  0  0  0  0  0  0  0  0  0  0  0
   -3.8166   -1.8031    1.4399 H   0  0  0  0  0  0  0  0  0  0  0  0
   -4.1536   -1.0475    3.8042 H   0  0  0  0  0  0  0  0  0  0  0  0
   -2.6093   -0.4723    3.1531 H   0  0  0  0  0  0  0  0  0  0  0  0
   -3.9722    0.6374    3.2824 H   0  0  0  0  0  0  0  0  0  0  0  0
   -2.5458   -0.6735   -2.2503 H   0  0  0  0  0  0  0  0  0  0  0  0
   -4.0010    0.3430   -2.0405 H   0  0  0  0  0  0  0  0  0  0  0  0
   -2.9206    2.1287   -3.4215 H   0  0  0  0  0  0  0  0  0  0  0  0
   -1.4825    1.1181   -3.6008 H   0  0  0  0  0  0  0  0  0  0  0  0
   -3.0160    0.6090   -4.3336 H   0  0  0  0  0  0  0  0  0  0  0  0
  1  2  1  0  0  0  0
  2  3  1  0  0  0  0
  3  4  2  0  0  0  0
  4  5  2  0  0  0  0
  4  6  2  0  0  0  0
  6  7  1  0  0  0  0
  7  8  1  0  0  0  0
  4  9  1  0  0  0  0
  9 10  1  0  0  0  0
 10 11  1  0  0  0  0
 11 12  1  0  0  0  0
 12 13  2  0  0  0  0
 12 14  2  0  0  0  0
 14 15  1  0  0  0  0
 15 16  1  0  0  0  0
 12 17  2  0  0  0  0
 17 18  1  0  0  0  0
 18 19  1  0  0  0  0
  1 20  1  0  0  0  0
  1 21  1  0  0  0  0
  1 22  1  0  0  0  0
  2 23  1  0  0  0  0
  2 24  1  0  0  0  0
  7 25  1  0  0  0  0
  7 26  1  0  0  0  0
  8 27  1  0  0  0  0
  8 28  1  0  0  0  0
  8 29  1  0  0  0  0
 10 30  1  0  0  0  0
 10 31  1  0  0  0  0
 15 32  1  0  0  0  0
 15 33  1  0  0  0  0
 16 34  1  0  0  0  0
 16 35  1  0  0  0  0
 16 36  1  0  0  0  0
 18 37  1  0  0  0  0
 18 38  1  0  0  0  0
 19 39  1  0  0  0  0
 19 40  1  0  0  0  0
 19 41  1  0  0  0  0
M  END
