 xtb: 6.7.1 (edcfbbe)
          04092505213D

 41 40  0     0  0            999 V2000
    5.4922    1.4151   -1.5581 C   0  0  0  0  0  0  0  0  0  0  0  0
    3.9852    1.2956   -1.4515 C   0  0  0  0  0  0  0  0  0  0  0  0
    3.6902    0.2257   -0.5354 O   0  0  0  0  0  0  0  0  0  0  0  0
    2.2680    0.0746    0.1617 P   0  0  0  0  0  0  0  0  0  0  0  0
    1.6420    1.7441    0.9786 S   0  0  0  0  0  0  0  0  0  0  0  0
    2.5300   -1.1418    1.1273 O   0  0  0  0  0  0  0  0  0  0  0  0
    2.5744   -1.0364    2.5712 C   0  0  0  0  0  0  0  0  0  0  0  0
    1.5733   -1.9969    3.1800 C   0  0  0  0  0  0  0  0  0  0  0  0
    1.1135   -0.8158   -1.3817 S   0  0  0  0  0  0  0  0  0  0  0  0
   -0.0158   -1.8227   -0.3690 C   0  0  0  0  0  0  0  0  0  0  0  0
   -1.0126   -0.8713    0.7975 S   0  0  0  0  0  0  0  0  0  0  0  0
   -2.2789    0.1274   -0.6026 P   0  0  0  0  0  0  0  0  0  0  0  0
   -2.3142   -0.6600   -2.3958 S   0  0  0  0  0  0  0  0  0  0  0  0
   -1.8033    1.6322   -0.6159 O   0  0  0  0  0  0  0  0  0  0  0  0
   -2.2199    2.6578    0.3198 C   0  0  0  0  0  0  0  0  0  0  0  0
   -1.9251    2.3023    1.7611 C   0  0  0  0  0  0  0  0  0  0  0  0
   -3.6953    0.2228    0.1138 O   0  0  0  0  0  0  0  0  0  0  0  0
   -4.6896   -0.8097   -0.0115 C   0  0  0  0  0  0  0  0  0  0  0  0
   -4.2689   -2.0999    0.6618 C   0  0  0  0  0  0  0  0  0  0  0  0
    5.9159    1.6508   -0.5861 H   0  0  0  0  0  0  0  0  0  0  0  0
    5.9127    0.4770   -1.9083 H   0  0  0  0  0  0  0  0  0  0  0  0
    5.7382    2.2056   -2.2595 H   0  0  0  0  0  0  0  0  0  0  0  0
    3.5326    1.0544   -2.4180 H   0  0  0  0  0  0  0  0  0  0  0  0
    3.5360    2.2190   -1.0684 H   0  0  0  0  0  0  0  0  0  0  0  0
    3.5970   -1.2875    2.8581 H   0  0  0  0  0  0  0  0  0  0  0  0
    2.3570   -0.0021    2.8577 H   0  0  0  0  0  0  0  0  0  0  0  0
    1.7832   -3.0124    2.8565 H   0  0  0  0  0  0  0  0  0  0  0  0
    1.6494   -1.9440    4.2611 H   0  0  0  0  0  0  0  0  0  0  0  0
    0.5619   -1.7283    2.8809 H   0  0  0  0  0  0  0  0  0  0  0  0
    0.5599   -2.5376    0.2128 H   0  0  0  0  0  0  0  0  0  0  0  0
   -0.6659   -2.3197   -1.0894 H   0  0  0  0  0  0  0  0  0  0  0  0
   -1.6476    3.5304    0.0012 H   0  0  0  0  0  0  0  0  0  0  0  0
   -3.2873    2.8321    0.1693 H   0  0  0  0  0  0  0  0  0  0  0  0
   -0.8593    2.1382    1.9007 H   0  0  0  0  0  0  0  0  0  0  0  0
   -2.2401    3.1242    2.3962 H   0  0  0  0  0  0  0  0  0  0  0  0
   -2.4649    1.4023    2.0486 H   0  0  0  0  0  0  0  0  0  0  0  0
   -5.5717   -0.3765    0.4621 H   0  0  0  0  0  0  0  0  0  0  0  0
   -4.8806   -0.9762   -1.0761 H   0  0  0  0  0  0  0  0  0  0  0  0
   -3.9660   -1.9126    1.6887 H   0  0  0  0  0  0  0  0  0  0  0  0
   -5.1025   -2.7948    0.6523 H   0  0  0  0  0  0  0  0  0  0  0  0
   -3.4344   -2.5455    0.1227 H   0  0  0  0  0  0  0  0  0  0  0  0
  1  2  1  0  0  0  0
  2  3  1  0  0  0  0
  3  4  2  0  0  0  0
  4  5  2  0  0  0  0
  4  6  2  0  0  0  0
  6  7  1  0  0  0  0
  7  8  1  0  0  0  0
  4  9  1  0  0  0  0
  9 10  1  0  0  0  0
 10 11  1  0  0  0  0
 11 12  1  0  0  0  0
 12 13  2  0  0  0  0
 12 14  2  0  0  0  0
 14 15  1  0  0  0  0
 15 16  1  0  0  0  0
 12 17  2  0  0  0  0
 17 18  1  0  0  0  0
 18 19  1  0  0  0  0
  1 20  1  0  0  0  0
  1 21  1  0  0  0  0
  1 22  1  0  0  0  0
  2 23  1  0  0  0  0
  2 24  1  0  0  0  0
  7 25  1  0  0  0  0
  7 26  1  0  0  0  0
  8 27  1  0  0  0  0
  8 28  1  0  0  0  0
  8 29  1  0  0  0  0
 10 30  1  0  0  0  0
 10 31  1  0  0  0  0
 15 32  1  0  0  0  0
 15 33  1  0  0  0  0
 16 34  1  0  0  0  0
 16 35  1  0  0  0  0
 16 36  1  0  0  0  0
 18 37  1  0  0  0  0
 18 38  1  0  0  0  0
 19 39  1  0  0  0  0
 19 40  1  0  0  0  0
 19 41  1  0  0  0  0
M  END
