 xtb: 6.7.1 (edcfbbe)
          04092505203D

 41 40  0     0  0            999 V2000
    3.7558   -1.2944   -2.3731 C   0  0  0  0  0  0  0  0  0  0  0  0
    4.1676    0.0727   -1.8640 C   0  0  0  0  0  0  0  0  0  0  0  0
    3.6897    0.3322   -0.5353 O   0  0  0  0  0  0  0  0  0  0  0  0
    2.1451    0.5043   -0.1735 P   0  0  0  0  0  0  0  0  0  0  0  0
    1.1491    1.4901   -1.5397 S   0  0  0  0  0  0  0  0  0  0  0  0
    2.2452    1.2809    1.1890 O   0  0  0  0  0  0  0  0  0  0  0  0
    2.5137    0.7186    2.4937 C   0  0  0  0  0  0  0  0  0  0  0  0
    3.7801   -0.1082    2.5239 C   0  0  0  0  0  0  0  0  0  0  0  0
    1.4597   -1.4649    0.2643 S   0  0  0  0  0  0  0  0  0  0  0  0
    0.1433   -1.6457   -0.9791 C   0  0  0  0  0  0  0  0  0  0  0  0
   -1.4867   -1.9817   -0.2624 S   0  0  0  0  0  0  0  0  0  0  0  0
   -2.0429   -0.0568    0.3634 P   0  0  0  0  0  0  0  0  0  0  0  0
   -0.9272    0.9274    1.6332 S   0  0  0  0  0  0  0  0  0  0  0  0
   -3.4868   -0.2583    0.9831 O   0  0  0  0  0  0  0  0  0  0  0  0
   -4.5712   -0.9081    0.2736 C   0  0  0  0  0  0  0  0  0  0  0  0
   -4.7700   -2.3208    0.7844 C   0  0  0  0  0  0  0  0  0  0  0  0
   -2.2208    0.6220   -1.0759 O   0  0  0  0  0  0  0  0  0  0  0  0
   -2.2802    2.0479   -1.2441 C   0  0  0  0  0  0  0  0  0  0  0  0
   -3.6043    2.6109   -0.7710 C   0  0  0  0  0  0  0  0  0  0  0  0
    4.2678   -1.4952   -3.3087 H   0  0  0  0  0  0  0  0  0  0  0  0
    4.0141   -2.0621   -1.6483 H   0  0  0  0  0  0  0  0  0  0  0  0
    2.6815   -1.3166   -2.5491 H   0  0  0  0  0  0  0  0  0  0  0  0
    3.7916    0.8590   -2.5266 H   0  0  0  0  0  0  0  0  0  0  0  0
    5.2512    0.1564   -1.7690 H   0  0  0  0  0  0  0  0  0  0  0  0
    2.5863    1.6012    3.1309 H   0  0  0  0  0  0  0  0  0  0  0  0
    1.6415    0.1305    2.7931 H   0  0  0  0  0  0  0  0  0  0  0  0
    4.6207    0.4807    2.1664 H   0  0  0  0  0  0  0  0  0  0  0  0
    3.9686   -0.4275    3.5442 H   0  0  0  0  0  0  0  0  0  0  0  0
    3.6702   -0.9886    1.8924 H   0  0  0  0  0  0  0  0  0  0  0  0
    0.3738   -2.5184   -1.5847 H   0  0  0  0  0  0  0  0  0  0  0  0
    0.0985   -0.7339   -1.5817 H   0  0  0  0  0  0  0  0  0  0  0  0
   -5.4448   -0.2875    0.4813 H   0  0  0  0  0  0  0  0  0  0  0  0
   -4.3551   -0.8983   -0.7976 H   0  0  0  0  0  0  0  0  0  0  0  0
   -3.8971   -2.9319    0.5657 H   0  0  0  0  0  0  0  0  0  0  0  0
   -4.9284   -2.3070    1.8591 H   0  0  0  0  0  0  0  0  0  0  0  0
   -5.6388   -2.7535    0.2986 H   0  0  0  0  0  0  0  0  0  0  0  0
   -1.4462    2.5007   -0.6978 H   0  0  0  0  0  0  0  0  0  0  0  0
   -2.1256    2.1961   -2.3140 H   0  0  0  0  0  0  0  0  0  0  0  0
   -3.6276    3.6783   -0.9665 H   0  0  0  0  0  0  0  0  0  0  0  0
   -4.4276    2.1305   -1.2933 H   0  0  0  0  0  0  0  0  0  0  0  0
   -3.7138    2.4456    0.3007 H   0  0  0  0  0  0  0  0  0  0  0  0
  1  2  1  0  0  0  0
  2  3  1  0  0  0  0
  3  4  2  0  0  0  0
  4  5  2  0  0  0  0
  4  6  2  0  0  0  0
  6  7  1  0  0  0  0
  7  8  1  0  0  0  0
  4  9  1  0  0  0  0
  9 10  1  0  0  0  0
 10 11  1  0  0  0  0
 11 12  1  0  0  0  0
 12 13  2  0  0  0  0
 12 14  2  0  0  0  0
 14 15  1  0  0  0  0
 15 16  1  0  0  0  0
 12 17  1  0  0  0  0
 17 18  1  0  0  0  0
 18 19  1  0  0  0  0
  1 20  1  0  0  0  0
  1 21  1  0  0  0  0
  1 22  1  0  0  0  0
  2 23  1  0  0  0  0
  2 24  1  0  0  0  0
  7 25  1  0  0  0  0
  7 26  1  0  0  0  0
  8 27  1  0  0  0  0
  8 28  1  0  0  0  0
  8 29  1  0  0  0  0
 10 30  1  0  0  0  0
 10 31  1  0  0  0  0
 15 32  1  0  0  0  0
 15 33  1  0  0  0  0
 16 34  1  0  0  0  0
 16 35  1  0  0  0  0
 16 36  1  0  0  0  0
 18 37  1  0  0  0  0
 18 38  1  0  0  0  0
 19 39  1  0  0  0  0
 19 40  1  0  0  0  0
 19 41  1  0  0  0  0
M  END
