 xtb: 6.7.1 (edcfbbe)
          04092505203D

 41 40  0     0  0            999 V2000
    4.4139   -0.0841   -2.3284 C   0  0  0  0  0  0  0  0  0  0  0  0
    4.4593   -0.6443   -0.9223 C   0  0  0  0  0  0  0  0  0  0  0  0
    3.6374    0.0944    0.0001 O   0  0  0  0  0  0  0  0  0  0  0  0
    2.0801    0.3698   -0.1682 P   0  0  0  0  0  0  0  0  0  0  0  0
    1.5316    1.7583   -1.4322 S   0  0  0  0  0  0  0  0  0  0  0  0
    1.6861    0.8013    1.2935 O   0  0  0  0  0  0  0  0  0  0  0  0
    2.0697    0.0513    2.4727 C   0  0  0  0  0  0  0  0  0  0  0  0
    3.2483    0.7116    3.1557 C   0  0  0  0  0  0  0  0  0  0  0  0
    1.3034   -1.5934   -0.5254 S   0  0  0  0  0  0  0  0  0  0  0  0
    0.1527   -1.2307   -1.8789 C   0  0  0  0  0  0  0  0  0  0  0  0
   -1.5899   -1.5876   -1.5150 S   0  0  0  0  0  0  0  0  0  0  0  0
   -2.0251   -0.2369    0.0435 P   0  0  0  0  0  0  0  0  0  0  0  0
   -1.2575   -0.5374    1.8259 S   0  0  0  0  0  0  0  0  0  0  0  0
   -3.6129   -0.2593    0.0349 O   0  0  0  0  0  0  0  0  0  0  0  0
   -4.3766   -1.2687    0.7239 C   0  0  0  0  0  0  0  0  0  0  0  0
   -5.7515   -0.7012    1.0141 C   0  0  0  0  0  0  0  0  0  0  0  0
   -1.6873    1.1413   -0.6513 O   0  0  0  0  0  0  0  0  0  0  0  0
   -1.5172    2.3574    0.1034 C   0  0  0  0  0  0  0  0  0  0  0  0
   -2.8147    2.8124    0.7332 C   0  0  0  0  0  0  0  0  0  0  0  0
    5.1208   -0.6212   -2.9524 H   0  0  0  0  0  0  0  0  0  0  0  0
    3.4147   -0.1940   -2.7473 H   0  0  0  0  0  0  0  0  0  0  0  0
    4.6676    0.9733   -2.3240 H   0  0  0  0  0  0  0  0  0  0  0  0
    5.4599   -0.5625   -0.4942 H   0  0  0  0  0  0  0  0  0  0  0  0
    4.1347   -1.6885   -0.9098 H   0  0  0  0  0  0  0  0  0  0  0  0
    1.1794    0.0542    3.1054 H   0  0  0  0  0  0  0  0  0  0  0  0
    2.2965   -0.9778    2.1819 H   0  0  0  0  0  0  0  0  0  0  0  0
    4.1146    0.7071    2.4994 H   0  0  0  0  0  0  0  0  0  0  0  0
    3.0028    1.7398    3.4063 H   0  0  0  0  0  0  0  0  0  0  0  0
    3.4801    0.1656    4.0646 H   0  0  0  0  0  0  0  0  0  0  0  0
    0.3998   -1.8885   -2.7088 H   0  0  0  0  0  0  0  0  0  0  0  0
    0.2615   -0.1778   -2.1576 H   0  0  0  0  0  0  0  0  0  0  0  0
   -4.4358   -2.1471    0.0760 H   0  0  0  0  0  0  0  0  0  0  0  0
   -3.8498   -1.5376    1.6461 H   0  0  0  0  0  0  0  0  0  0  0  0
   -6.2282   -0.3966    0.0871 H   0  0  0  0  0  0  0  0  0  0  0  0
   -6.3548   -1.4631    1.4966 H   0  0  0  0  0  0  0  0  0  0  0  0
   -5.6724    0.1614    1.6698 H   0  0  0  0  0  0  0  0  0  0  0  0
   -0.7481    2.1879    0.8657 H   0  0  0  0  0  0  0  0  0  0  0  0
   -1.1411    3.0686   -0.6340 H   0  0  0  0  0  0  0  0  0  0  0  0
   -2.6655    3.7800    1.2020 H   0  0  0  0  0  0  0  0  0  0  0  0
   -3.5901    2.8892   -0.0243 H   0  0  0  0  0  0  0  0  0  0  0  0
   -3.1277    2.0944    1.4904 H   0  0  0  0  0  0  0  0  0  0  0  0
  1  2  1  0  0  0  0
  2  3  1  0  0  0  0
  3  4  2  0  0  0  0
  4  5  2  0  0  0  0
  4  6  2  0  0  0  0
  6  7  1  0  0  0  0
  7  8  1  0  0  0  0
  4  9  1  0  0  0  0
  9 10  1  0  0  0  0
 10 11  1  0  0  0  0
 11 12  1  0  0  0  0
 12 13  2  0  0  0  0
 12 14  2  0  0  0  0
 14 15  1  0  0  0  0
 15 16  1  0  0  0  0
 12 17  2  0  0  0  0
 17 18  1  0  0  0  0
 18 19  1  0  0  0  0
  1 20  1  0  0  0  0
  1 21  1  0  0  0  0
  1 22  1  0  0  0  0
  2 23  1  0  0  0  0
  2 24  1  0  0  0  0
  7 25  1  0  0  0  0
  7 26  1  0  0  0  0
  8 27  1  0  0  0  0
  8 28  1  0  0  0  0
  8 29  1  0  0  0  0
 10 30  1  0  0  0  0
 10 31  1  0  0  0  0
 15 32  1  0  0  0  0
 15 33  1  0  0  0  0
 16 34  1  0  0  0  0
 16 35  1  0  0  0  0
 16 36  1  0  0  0  0
 18 37  1  0  0  0  0
 18 38  1  0  0  0  0
 19 39  1  0  0  0  0
 19 40  1  0  0  0  0
 19 41  1  0  0  0  0
M  END
