 xtb: 6.7.1 (edcfbbe)
          04092505203D

 41 40  0     0  0            999 V2000
    2.5944    2.7003   -0.7657 C   0  0  0  0  0  0  0  0  0  0  0  0
    2.2756    1.4193   -1.5105 C   0  0  0  0  0  0  0  0  0  0  0  0
    1.4995    0.5099   -0.7011 O   0  0  0  0  0  0  0  0  0  0  0  0
    2.0900   -0.4454    0.4123 P   0  0  0  0  0  0  0  0  0  0  0  0
    2.8600    0.3650    2.0281 S   0  0  0  0  0  0  0  0  0  0  0  0
    3.1113   -1.3275   -0.4250 O   0  0  0  0  0  0  0  0  0  0  0  0
    4.1182   -2.1381    0.2077 C   0  0  0  0  0  0  0  0  0  0  0  0
    3.5148   -3.3280    0.9247 C   0  0  0  0  0  0  0  0  0  0  0  0
    0.3972   -1.6660    0.7292 S   0  0  0  0  0  0  0  0  0  0  0  0
   -0.3903   -0.5916    1.9570 C   0  0  0  0  0  0  0  0  0  0  0  0
   -0.9111    1.0123    1.2846 S   0  0  0  0  0  0  0  0  0  0  0  0
   -2.0674    0.3637   -0.3766 P   0  0  0  0  0  0  0  0  0  0  0  0
   -1.2613   -0.0771   -2.1138 S   0  0  0  0  0  0  0  0  0  0  0  0
   -3.1659    1.5118   -0.4850 O   0  0  0  0  0  0  0  0  0  0  0  0
   -2.9787    2.6613   -1.3249 C   0  0  0  0  0  0  0  0  0  0  0  0
   -1.8318    3.5253   -0.8413 C   0  0  0  0  0  0  0  0  0  0  0  0
   -2.8582   -0.8050    0.3399 O   0  0  0  0  0  0  0  0  0  0  0  0
   -3.5089   -1.8554   -0.4056 C   0  0  0  0  0  0  0  0  0  0  0  0
   -4.7338   -1.3449   -1.1346 C   0  0  0  0  0  0  0  0  0  0  0  0
    3.0879    3.3919   -1.4410 H   0  0  0  0  0  0  0  0  0  0  0  0
    1.6807    3.1546   -0.3894 H   0  0  0  0  0  0  0  0  0  0  0  0
    3.2499    2.4973    0.0788 H   0  0  0  0  0  0  0  0  0  0  0  0
    3.1849    0.9097   -1.8377 H   0  0  0  0  0  0  0  0  0  0  0  0
    1.6297    1.6032   -2.3723 H   0  0  0  0  0  0  0  0  0  0  0  0
    4.7631   -2.4459   -0.6164 H   0  0  0  0  0  0  0  0  0  0  0  0
    4.6776   -1.5092    0.9078 H   0  0  0  0  0  0  0  0  0  0  0  0
    2.8738   -3.8901    0.2500 H   0  0  0  0  0  0  0  0  0  0  0  0
    4.3103   -3.9706    1.2879 H   0  0  0  0  0  0  0  0  0  0  0  0
    2.9195   -2.9883    1.7714 H   0  0  0  0  0  0  0  0  0  0  0  0
    0.3232   -0.3618    2.7497 H   0  0  0  0  0  0  0  0  0  0  0  0
   -1.2536   -1.1279    2.3418 H   0  0  0  0  0  0  0  0  0  0  0  0
   -2.7931    2.3159   -2.3476 H   0  0  0  0  0  0  0  0  0  0  0  0
   -3.9332    3.1862   -1.2749 H   0  0  0  0  0  0  0  0  0  0  0  0
   -0.9003    2.9616   -0.9106 H   0  0  0  0  0  0  0  0  0  0  0  0
   -1.7551    4.4134   -1.4602 H   0  0  0  0  0  0  0  0  0  0  0  0
   -1.9846    3.8142    0.1957 H   0  0  0  0  0  0  0  0  0  0  0  0
   -2.7861   -2.2807   -1.1095 H   0  0  0  0  0  0  0  0  0  0  0  0
   -3.7658   -2.5953    0.3535 H   0  0  0  0  0  0  0  0  0  0  0  0
   -5.2518   -2.1794   -1.5966 H   0  0  0  0  0  0  0  0  0  0  0  0
   -5.4010   -0.8414   -0.4401 H   0  0  0  0  0  0  0  0  0  0  0  0
   -4.4350   -0.6400   -1.9093 H   0  0  0  0  0  0  0  0  0  0  0  0
  1  2  1  0  0  0  0
  2  3  1  0  0  0  0
  3  4  2  0  0  0  0
  4  5  2  0  0  0  0
  4  6  2  0  0  0  0
  6  7  1  0  0  0  0
  7  8  1  0  0  0  0
  4  9  1  0  0  0  0
  9 10  1  0  0  0  0
 10 11  1  0  0  0  0
 11 12  1  0  0  0  0
 12 13  2  0  0  0  0
 12 14  2  0  0  0  0
 14 15  1  0  0  0  0
 15 16  1  0  0  0  0
 12 17  2  0  0  0  0
 17 18  1  0  0  0  0
 18 19  1  0  0  0  0
  1 20  1  0  0  0  0
  1 21  1  0  0  0  0
  1 22  1  0  0  0  0
  2 23  1  0  0  0  0
  2 24  1  0  0  0  0
  7 25  1  0  0  0  0
  7 26  1  0  0  0  0
  8 27  1  0  0  0  0
  8 28  1  0  0  0  0
  8 29  1  0  0  0  0
 10 30  1  0  0  0  0
 10 31  1  0  0  0  0
 15 32  1  0  0  0  0
 15 33  1  0  0  0  0
 16 34  1  0  0  0  0
 16 35  1  0  0  0  0
 16 36  1  0  0  0  0
 18 37  1  0  0  0  0
 18 38  1  0  0  0  0
 19 39  1  0  0  0  0
 19 40  1  0  0  0  0
 19 41  1  0  0  0  0
M  END
