 xtb: 6.7.1 (edcfbbe)
          04092505203D

 41 40  0     0  0            999 V2000
    4.9107   -0.1386   -2.1771 C   0  0  0  0  0  0  0  0  0  0  0  0
    3.8123   -1.1767   -2.2661 C   0  0  0  0  0  0  0  0  0  0  0  0
    3.1077   -1.3212   -1.0166 O   0  0  0  0  0  0  0  0  0  0  0  0
    2.1366   -0.2078   -0.4441 P   0  0  0  0  0  0  0  0  0  0  0  0
    1.1165    0.7325   -1.8405 S   0  0  0  0  0  0  0  0  0  0  0  0
    3.1396    0.6672    0.4154 O   0  0  0  0  0  0  0  0  0  0  0  0
    2.8096    1.8589    1.1503 C   0  0  0  0  0  0  0  0  0  0  0  0
    2.5893    1.5394    2.6150 C   0  0  0  0  0  0  0  0  0  0  0  0
    1.0742   -1.4000    0.9244 S   0  0  0  0  0  0  0  0  0  0  0  0
   -0.2840   -1.8964   -0.1945 C   0  0  0  0  0  0  0  0  0  0  0  0
   -1.9230   -1.6735    0.5290 S   0  0  0  0  0  0  0  0  0  0  0  0
   -2.1060    0.4484    0.3644 P   0  0  0  0  0  0  0  0  0  0  0  0
   -0.7451    1.5677    1.2137 S   0  0  0  0  0  0  0  0  0  0  0  0
   -3.6063    0.6760    0.8341 O   0  0  0  0  0  0  0  0  0  0  0  0
   -4.1975    0.1205    2.0249 C   0  0  0  0  0  0  0  0  0  0  0  0
   -3.3812    0.3956    3.2697 C   0  0  0  0  0  0  0  0  0  0  0  0
   -2.1843    0.8176   -1.1640 O   0  0  0  0  0  0  0  0  0  0  0  0
   -3.1758    0.3363   -2.1044 C   0  0  0  0  0  0  0  0  0  0  0  0
   -2.6322   -0.8185   -2.9233 C   0  0  0  0  0  0  0  0  0  0  0  0
    5.5698   -0.3603   -1.3421 H   0  0  0  0  0  0  0  0  0  0  0  0
    5.4813   -0.1367   -3.1005 H   0  0  0  0  0  0  0  0  0  0  0  0
    4.4746    0.8483   -2.0276 H   0  0  0  0  0  0  0  0  0  0  0  0
    4.2103   -2.1741   -2.4563 H   0  0  0  0  0  0  0  0  0  0  0  0
    3.0880   -0.9064   -3.0414 H   0  0  0  0  0  0  0  0  0  0  0  0
    3.6720    2.5143    1.0129 H   0  0  0  0  0  0  0  0  0  0  0  0
    1.9214    2.3258    0.7138 H   0  0  0  0  0  0  0  0  0  0  0  0
    3.4418    0.9938    3.0092 H   0  0  0  0  0  0  0  0  0  0  0  0
    2.4628    2.4669    3.1637 H   0  0  0  0  0  0  0  0  0  0  0  0
    1.6907    0.9389    2.7384 H   0  0  0  0  0  0  0  0  0  0  0  0
   -0.1918   -2.9598   -0.3983 H   0  0  0  0  0  0  0  0  0  0  0  0
   -0.2048   -1.3020   -1.1086 H   0  0  0  0  0  0  0  0  0  0  0  0
   -5.1751    0.6035    2.0732 H   0  0  0  0  0  0  0  0  0  0  0  0
   -4.3190   -0.9554    1.8721 H   0  0  0  0  0  0  0  0  0  0  0  0
   -2.4152   -0.1037    3.2036 H   0  0  0  0  0  0  0  0  0  0  0  0
   -3.2076    1.4634    3.3819 H   0  0  0  0  0  0  0  0  0  0  0  0
   -3.9130    0.0230    4.1392 H   0  0  0  0  0  0  0  0  0  0  0  0
   -4.0788    0.0559   -1.5593 H   0  0  0  0  0  0  0  0  0  0  0  0
   -3.3787    1.2030   -2.7356 H   0  0  0  0  0  0  0  0  0  0  0  0
   -1.6602   -0.5511   -3.3327 H   0  0  0  0  0  0  0  0  0  0  0  0
   -2.5315   -1.7140   -2.3149 H   0  0  0  0  0  0  0  0  0  0  0  0
   -3.3162   -1.0236   -3.7406 H   0  0  0  0  0  0  0  0  0  0  0  0
  1  2  1  0  0  0  0
  2  3  1  0  0  0  0
  3  4  2  0  0  0  0
  4  5  2  0  0  0  0
  4  6  2  0  0  0  0
  6  7  1  0  0  0  0
  7  8  1  0  0  0  0
  4  9  1  0  0  0  0
  9 10  1  0  0  0  0
 10 11  1  0  0  0  0
 11 12  1  0  0  0  0
 12 13  2  0  0  0  0
 12 14  2  0  0  0  0
 14 15  1  0  0  0  0
 15 16  1  0  0  0  0
 12 17  2  0  0  0  0
 17 18  1  0  0  0  0
 18 19  1  0  0  0  0
  1 20  1  0  0  0  0
  1 21  1  0  0  0  0
  1 22  1  0  0  0  0
  2 23  1  0  0  0  0
  2 24  1  0  0  0  0
  7 25  1  0  0  0  0
  7 26  1  0  0  0  0
  8 27  1  0  0  0  0
  8 28  1  0  0  0  0
  8 29  1  0  0  0  0
 10 30  1  0  0  0  0
 10 31  1  0  0  0  0
 15 32  1  0  0  0  0
 15 33  1  0  0  0  0
 16 34  1  0  0  0  0
 16 35  1  0  0  0  0
 16 36  1  0  0  0  0
 18 37  1  0  0  0  0
 18 38  1  0  0  0  0
 19 39  1  0  0  0  0
 19 40  1  0  0  0  0
 19 41  1  0  0  0  0
M  END
