 xtb: 6.7.1 (edcfbbe)
          04092505203D

 41 40  0     0  0            999 V2000
    4.7521   -1.3170   -1.1550 C   0  0  0  0  0  0  0  0  0  0  0  0
    4.7466    0.0690   -0.5435 C   0  0  0  0  0  0  0  0  0  0  0  0
    3.5972    0.2861    0.2934 O   0  0  0  0  0  0  0  0  0  0  0  0
    2.1196    0.3930   -0.2912 P   0  0  0  0  0  0  0  0  0  0  0  0
    2.0302    1.3375   -2.0120 S   0  0  0  0  0  0  0  0  0  0  0  0
    1.3709    1.0253    0.9528 O   0  0  0  0  0  0  0  0  0  0  0  0
    1.4923    2.4308    1.2610 C   0  0  0  0  0  0  0  0  0  0  0  0
    0.6820    2.6955    2.5117 C   0  0  0  0  0  0  0  0  0  0  0  0
    1.3842   -1.5679   -0.2061 S   0  0  0  0  0  0  0  0  0  0  0  0
    0.1216   -1.5082   -1.5273 C   0  0  0  0  0  0  0  0  0  0  0  0
   -1.5372   -1.8678   -0.9169 S   0  0  0  0  0  0  0  0  0  0  0  0
   -1.8761   -0.0709    0.1711 P   0  0  0  0  0  0  0  0  0  0  0  0
   -1.3174    1.5748   -0.7349 S   0  0  0  0  0  0  0  0  0  0  0  0
   -1.2270   -0.2209    1.5938 O   0  0  0  0  0  0  0  0  0  0  0  0
   -1.1572   -1.4268    2.3979 C   0  0  0  0  0  0  0  0  0  0  0  0
   -2.5101   -2.0594    2.6369 C   0  0  0  0  0  0  0  0  0  0  0  0
   -3.4317   -0.1376    0.4792 O   0  0  0  0  0  0  0  0  0  0  0  0
   -4.4111    0.0934   -0.5520 C   0  0  0  0  0  0  0  0  0  0  0  0
   -5.7314    0.4080    0.1215 C   0  0  0  0  0  0  0  0  0  0  0  0
    4.6283   -2.0719   -0.3826 H   0  0  0  0  0  0  0  0  0  0  0  0
    3.9372   -1.4081   -1.8719 H   0  0  0  0  0  0  0  0  0  0  0  0
    5.6934   -1.4769   -1.6708 H   0  0  0  0  0  0  0  0  0  0  0  0
    4.7515    0.8344   -1.3263 H   0  0  0  0  0  0  0  0  0  0  0  0
    5.5914    0.2180    0.1302 H   0  0  0  0  0  0  0  0  0  0  0  0
    2.5506    2.6651    1.4049 H   0  0  0  0  0  0  0  0  0  0  0  0
    1.1093    3.0004    0.4071 H   0  0  0  0  0  0  0  0  0  0  0  0
    0.7343    3.7519    2.7538 H   0  0  0  0  0  0  0  0  0  0  0  0
   -0.3547    2.4160    2.3388 H   0  0  0  0  0  0  0  0  0  0  0  0
    1.0726    2.1100    3.3387 H   0  0  0  0  0  0  0  0  0  0  0  0
    0.3532   -2.2863   -2.2497 H   0  0  0  0  0  0  0  0  0  0  0  0
    0.1463   -0.5173   -1.9897 H   0  0  0  0  0  0  0  0  0  0  0  0
   -0.4770   -2.1267    1.9039 H   0  0  0  0  0  0  0  0  0  0  0  0
   -0.7058   -1.0736    3.3262 H   0  0  0  0  0  0  0  0  0  0  0  0
   -2.9167   -2.4493    1.7062 H   0  0  0  0  0  0  0  0  0  0  0  0
   -2.3940   -2.8776    3.3411 H   0  0  0  0  0  0  0  0  0  0  0  0
   -3.2015   -1.3272    3.0455 H   0  0  0  0  0  0  0  0  0  0  0  0
   -4.0710    0.9256   -1.1779 H   0  0  0  0  0  0  0  0  0  0  0  0
   -4.4789   -0.8096   -1.1644 H   0  0  0  0  0  0  0  0  0  0  0  0
   -5.6336    1.2988    0.7357 H   0  0  0  0  0  0  0  0  0  0  0  0
   -6.4865    0.5786   -0.6387 H   0  0  0  0  0  0  0  0  0  0  0  0
   -6.0347   -0.4234    0.7508 H   0  0  0  0  0  0  0  0  0  0  0  0
  1  2  1  0  0  0  0
  2  3  1  0  0  0  0
  3  4  2  0  0  0  0
  4  5  2  0  0  0  0
  4  6  2  0  0  0  0
  6  7  1  0  0  0  0
  7  8  1  0  0  0  0
  4  9  1  0  0  0  0
  9 10  1  0  0  0  0
 10 11  1  0  0  0  0
 11 12  1  0  0  0  0
 12 13  2  0  0  0  0
 12 14  2  0  0  0  0
 14 15  1  0  0  0  0
 15 16  1  0  0  0  0
 12 17  2  0  0  0  0
 17 18  1  0  0  0  0
 18 19  1  0  0  0  0
  1 20  1  0  0  0  0
  1 21  1  0  0  0  0
  1 22  1  0  0  0  0
  2 23  1  0  0  0  0
  2 24  1  0  0  0  0
  7 25  1  0  0  0  0
  7 26  1  0  0  0  0
  8 27  1  0  0  0  0
  8 28  1  0  0  0  0
  8 29  1  0  0  0  0
 10 30  1  0  0  0  0
 10 31  1  0  0  0  0
 15 32  1  0  0  0  0
 15 33  1  0  0  0  0
 16 34  1  0  0  0  0
 16 35  1  0  0  0  0
 16 36  1  0  0  0  0
 18 37  1  0  0  0  0
 18 38  1  0  0  0  0
 19 39  1  0  0  0  0
 19 40  1  0  0  0  0
 19 41  1  0  0  0  0
M  END
