 xtb: 6.7.1 (edcfbbe)
          04092505203D

 41 40  0     0  0            999 V2000
    0.5234   -1.2389    3.2318 C   0  0  0  0  0  0  0  0  0  0  0  0
    1.7001   -0.5712    2.5514 C   0  0  0  0  0  0  0  0  0  0  0  0
    1.9651   -1.2906    1.3179 O   0  0  0  0  0  0  0  0  0  0  0  0
    2.6456   -0.6281    0.0630 P   0  0  0  0  0  0  0  0  0  0  0  0
    2.9130   -1.9197   -1.3808 S   0  0  0  0  0  0  0  0  0  0  0  0
    3.9578    0.0120    0.6935 O   0  0  0  0  0  0  0  0  0  0  0  0
    5.0936    0.4110   -0.0950 C   0  0  0  0  0  0  0  0  0  0  0  0
    4.7689    1.5481   -1.0416 C   0  0  0  0  0  0  0  0  0  0  0  0
    1.4319    1.0595   -0.4165 S   0  0  0  0  0  0  0  0  0  0  0  0
    0.1750    0.1261   -1.3210 C   0  0  0  0  0  0  0  0  0  0  0  0
   -0.9894   -0.7367   -0.2396 S   0  0  0  0  0  0  0  0  0  0  0  0
   -2.7572    0.4389   -0.5551 P   0  0  0  0  0  0  0  0  0  0  0  0
   -2.5955    1.8207   -1.9339 S   0  0  0  0  0  0  0  0  0  0  0  0
   -3.2339    0.9536    0.8734 O   0  0  0  0  0  0  0  0  0  0  0  0
   -2.8060    2.2082    1.4315 C   0  0  0  0  0  0  0  0  0  0  0  0
   -1.3634    2.1649    1.8914 C   0  0  0  0  0  0  0  0  0  0  0  0
   -3.8748   -0.6156   -0.9114 O   0  0  0  0  0  0  0  0  0  0  0  0
   -4.5937   -1.4337    0.0435 C   0  0  0  0  0  0  0  0  0  0  0  0
   -3.6760   -2.3232    0.8541 C   0  0  0  0  0  0  0  0  0  0  0  0
    0.3113   -0.7256    4.1641 H   0  0  0  0  0  0  0  0  0  0  0  0
   -0.3489   -1.2027    2.5842 H   0  0  0  0  0  0  0  0  0  0  0  0
    0.7547   -2.2798    3.4373 H   0  0  0  0  0  0  0  0  0  0  0  0
    2.6039   -0.6232    3.1609 H   0  0  0  0  0  0  0  0  0  0  0  0
    1.4879    0.4744    2.3086 H   0  0  0  0  0  0  0  0  0  0  0  0
    5.8336    0.7060    0.6503 H   0  0  0  0  0  0  0  0  0  0  0  0
    5.4508   -0.4616   -0.6503 H   0  0  0  0  0  0  0  0  0  0  0  0
    4.0833    1.2056   -1.8155 H   0  0  0  0  0  0  0  0  0  0  0  0
    4.3066    2.3713   -0.5024 H   0  0  0  0  0  0  0  0  0  0  0  0
    5.6833    1.8935   -1.5133 H   0  0  0  0  0  0  0  0  0  0  0  0
    0.6785   -0.6225   -1.9343 H   0  0  0  0  0  0  0  0  0  0  0  0
   -0.3785    0.8385   -1.9381 H   0  0  0  0  0  0  0  0  0  0  0  0
   -2.9499    2.9908    0.6800 H   0  0  0  0  0  0  0  0  0  0  0  0
   -3.4890    2.3662    2.2676 H   0  0  0  0  0  0  0  0  0  0  0  0
   -1.1288    3.0842    2.4180 H   0  0  0  0  0  0  0  0  0  0  0  0
   -1.2047    1.3193    2.5555 H   0  0  0  0  0  0  0  0  0  0  0  0
   -0.6978    2.0782    1.0334 H   0  0  0  0  0  0  0  0  0  0  0  0
   -5.1691   -0.7714    0.6931 H   0  0  0  0  0  0  0  0  0  0  0  0
   -5.2677   -2.0161   -0.5865 H   0  0  0  0  0  0  0  0  0  0  0  0
   -3.0141   -1.7160    1.4690 H   0  0  0  0  0  0  0  0  0  0  0  0
   -4.2747   -2.9585    1.4994 H   0  0  0  0  0  0  0  0  0  0  0  0
   -3.0703   -2.9460    0.2004 H   0  0  0  0  0  0  0  0  0  0  0  0
  1  2  1  0  0  0  0
  2  3  1  0  0  0  0
  3  4  2  0  0  0  0
  4  5  2  0  0  0  0
  4  6  2  0  0  0  0
  6  7  1  0  0  0  0
  7  8  1  0  0  0  0
  4  9  1  0  0  0  0
  9 10  1  0  0  0  0
 10 11  1  0  0  0  0
 11 12  1  0  0  0  0
 12 13  2  0  0  0  0
 12 14  2  0  0  0  0
 14 15  1  0  0  0  0
 15 16  1  0  0  0  0
 12 17  2  0  0  0  0
 17 18  1  0  0  0  0
 18 19  1  0  0  0  0
  1 20  1  0  0  0  0
  1 21  1  0  0  0  0
  1 22  1  0  0  0  0
  2 23  1  0  0  0  0
  2 24  1  0  0  0  0
  7 25  1  0  0  0  0
  7 26  1  0  0  0  0
  8 27  1  0  0  0  0
  8 28  1  0  0  0  0
  8 29  1  0  0  0  0
 10 30  1  0  0  0  0
 10 31  1  0  0  0  0
 15 32  1  0  0  0  0
 15 33  1  0  0  0  0
 16 34  1  0  0  0  0
 16 35  1  0  0  0  0
 16 36  1  0  0  0  0
 18 37  1  0  0  0  0
 18 38  1  0  0  0  0
 19 39  1  0  0  0  0
 19 40  1  0  0  0  0
 19 41  1  0  0  0  0
M  END
