 xtb: 6.7.1 (edcfbbe)
          04092507313D

 38 37  0     0  0            999 V2000
    1.9015   -3.6008   -2.2275 C   0  0  0  0  0  0  0  0  0  0  0  0
    3.1436   -2.9046   -1.6946 C   0  0  0  0  0  0  0  0  0  0  0  0
    2.8034   -1.6264   -1.1252 O   0  0  0  0  0  0  0  0  0  0  0  0
    2.3693   -1.5885    0.1191 C   0  0  0  0  0  0  0  0  0  0  0  0
    2.3067   -2.5451    0.8577 O   0  0  0  0  0  0  0  0  0  0  0  0
    1.9620   -0.1837    0.5274 C   0  0  0  0  0  0  0  0  0  0  0  0
    1.1150    0.4758   -0.5600 C   0  0  0  0  0  0  0  0  0  0  0  0
    1.7147    0.6229   -1.4621 H   0  0  0  0  0  0  0  0  0  0  0  0
    0.5513    1.8048   -0.0986 C   0  0  0  0  0  0  0  0  0  0  0  0
   -0.6431    2.0288   -0.0733 O   0  0  0  0  0  0  0  0  0  0  0  0
    1.4855    2.6339    0.2685 O   0  0  0  0  0  0  0  0  0  0  0  0
    1.0931    3.9316    0.7699 C   0  0  0  0  0  0  0  0  0  0  0  0
    0.8418    4.9038   -0.3704 C   0  0  0  0  0  0  0  0  0  0  0  0
   -0.2769   -0.5697   -1.0932 S   0  0  0  0  0  0  0  0  0  0  0  0
   -1.6749   -0.2614    0.4930 P   0  0  0  0  0  0  0  0  0  0  0  0
   -1.1485    0.3278    2.2878 S   0  0  0  0  0  0  0  0  0  0  0  0
   -2.9875    0.3877   -0.1466 O   0  0  0  0  0  0  0  0  0  0  0  0
   -3.3850    1.7580   -0.1394 C   0  0  0  0  0  0  0  0  0  0  0  0
   -2.2058   -1.7565    0.6587 O   0  0  0  0  0  0  0  0  0  0  0  0
   -2.7751   -2.5182   -0.4178 C   0  0  0  0  0  0  0  0  0  0  0  0
    2.1887   -4.5204   -2.7258 H   0  0  0  0  0  0  0  0  0  0  0  0
    1.2276   -3.8376   -1.4072 H   0  0  0  0  0  0  0  0  0  0  0  0
    1.3828   -2.9528   -2.9289 H   0  0  0  0  0  0  0  0  0  0  0  0
    3.8431   -2.6662   -2.4956 H   0  0  0  0  0  0  0  0  0  0  0  0
    3.6309   -3.5126   -0.9271 H   0  0  0  0  0  0  0  0  0  0  0  0
    2.8605    0.4150    0.6889 H   0  0  0  0  0  0  0  0  0  0  0  0
    1.4121   -0.2527    1.4690 H   0  0  0  0  0  0  0  0  0  0  0  0
    0.1999    3.8068    1.3882 H   0  0  0  0  0  0  0  0  0  0  0  0
    1.9377    4.2437    1.3834 H   0  0  0  0  0  0  0  0  0  0  0  0
    0.6144    5.8817    0.0408 H   0  0  0  0  0  0  0  0  0  0  0  0
    1.7230    4.9769   -1.0015 H   0  0  0  0  0  0  0  0  0  0  0  0
   -0.0009    4.5710   -0.9716 H   0  0  0  0  0  0  0  0  0  0  0  0
   -3.0705    2.2387    0.7865 H   0  0  0  0  0  0  0  0  0  0  0  0
   -4.4703    1.7444   -0.2143 H   0  0  0  0  0  0  0  0  0  0  0  0
   -2.9425    2.2738   -0.9891 H   0  0  0  0  0  0  0  0  0  0  0  0
   -2.0909   -2.5375   -1.2669 H   0  0  0  0  0  0  0  0  0  0  0  0
   -3.7274   -2.0832   -0.7154 H   0  0  0  0  0  0  0  0  0  0  0  0
   -2.9146   -3.5188   -0.0163 H   0  0  0  0  0  0  0  0  0  0  0  0
  1  2  1  0  0  0  0
  2  3  1  0  0  0  0
  3  4  1  0  0  0  0
  4  5  2  0  0  0  0
  4  6  1  0  0  0  0
  6  7  1  0  0  0  0
  7  8  1  0  0  0  0
  7  9  1  0  0  0  0
  9 10  2  0  0  0  0
  9 11  4  0  0  0  0
 11 12  1  0  0  0  0
 12 13  1  0  0  0  0
  7 14  1  0  0  0  0
 14 15  1  0  0  0  0
 15 16  2  0  0  0  0
 15 17  2  0  0  0  0
 17 18  1  0  0  0  0
 15 19  1  0  0  0  0
 19 20  1  0  0  0  0
  1 21  1  0  0  0  0
  1 22  1  0  0  0  0
  1 23  1  0  0  0  0
  2 24  1  0  0  0  0
  2 25  1  0  0  0  0
  6 26  1  0  0  0  0
  6 27  1  0  0  0  0
 12 28  1  0  0  0  0
 12 29  1  0  0  0  0
 13 30  1  0  0  0  0
 13 31  1  0  0  0  0
 13 32  1  0  0  0  0
 18 33  1  0  0  0  0
 18 34  1  0  0  0  0
 18 35  1  0  0  0  0
 20 36  1  0  0  0  0
 20 37  1  0  0  0  0
 20 38  1  0  0  0  0
M  END
