 xtb: 6.7.1 (edcfbbe)
          04092505213D

 41 40  0     0  0            999 V2000
    2.5605    2.9706    0.1648 C   0  0  0  0  0  0  0  0  0  0  0  0
    3.6532    2.1016    0.7511 C   0  0  0  0  0  0  0  0  0  0  0  0
    3.6120    0.7648    0.2193 O   0  0  0  0  0  0  0  0  0  0  0  0
    2.4268   -0.2375    0.5470 P   0  0  0  0  0  0  0  0  0  0  0  0
    1.7067   -0.1093    2.3709 S   0  0  0  0  0  0  0  0  0  0  0  0
    3.0373   -1.6503    0.1612 O   0  0  0  0  0  0  0  0  0  0  0  0
    3.7503   -2.4625    1.1173 C   0  0  0  0  0  0  0  0  0  0  0  0
    5.0822   -1.8493    1.4948 C   0  0  0  0  0  0  0  0  0  0  0  0
    1.1133   -0.0343   -1.0975 S   0  0  0  0  0  0  0  0  0  0  0  0
   -0.0749   -1.2959   -0.5573 C   0  0  0  0  0  0  0  0  0  0  0  0
   -1.2831   -0.6702    0.6334 S   0  0  0  0  0  0  0  0  0  0  0  0
   -2.6622    0.0325   -0.8394 P   0  0  0  0  0  0  0  0  0  0  0  0
   -3.0350   -1.2150   -2.2994 S   0  0  0  0  0  0  0  0  0  0  0  0
   -2.0648    1.3558   -1.4447 O   0  0  0  0  0  0  0  0  0  0  0  0
   -1.6589    2.5035   -0.6576 C   0  0  0  0  0  0  0  0  0  0  0  0
   -0.7805    3.3651   -1.5402 C   0  0  0  0  0  0  0  0  0  0  0  0
   -3.8693    0.5849    0.0328 O   0  0  0  0  0  0  0  0  0  0  0  0
   -4.5253   -0.1345    1.0943 C   0  0  0  0  0  0  0  0  0  0  0  0
   -5.0344   -1.4903    0.6527 C   0  0  0  0  0  0  0  0  0  0  0  0
    2.6127    2.9608   -0.9208 H   0  0  0  0  0  0  0  0  0  0  0  0
    1.5873    2.5916    0.4749 H   0  0  0  0  0  0  0  0  0  0  0  0
    2.6742    3.9882    0.5242 H   0  0  0  0  0  0  0  0  0  0  0  0
    3.5547    2.0438    1.8400 H   0  0  0  0  0  0  0  0  0  0  0  0
    4.6474    2.4613    0.4837 H   0  0  0  0  0  0  0  0  0  0  0  0
    3.1195   -2.5902    2.0034 H   0  0  0  0  0  0  0  0  0  0  0  0
    3.8743   -3.4186    0.6068 H   0  0  0  0  0  0  0  0  0  0  0  0
    4.9211   -0.9261    2.0495 H   0  0  0  0  0  0  0  0  0  0  0  0
    5.6340   -2.5448    2.1194 H   0  0  0  0  0  0  0  0  0  0  0  0
    5.6593   -1.6272    0.6010 H   0  0  0  0  0  0  0  0  0  0  0  0
    0.4607   -2.1145   -0.0826 H   0  0  0  0  0  0  0  0  0  0  0  0
   -0.6086   -1.6412   -1.4454 H   0  0  0  0  0  0  0  0  0  0  0  0
   -2.5603    3.0310   -0.3404 H   0  0  0  0  0  0  0  0  0  0  0  0
   -1.1209    2.1487    0.2273 H   0  0  0  0  0  0  0  0  0  0  0  0
    0.0794    2.7913   -1.8759 H   0  0  0  0  0  0  0  0  0  0  0  0
   -1.3406    3.6933   -2.4107 H   0  0  0  0  0  0  0  0  0  0  0  0
   -0.4440    4.2300   -0.9781 H   0  0  0  0  0  0  0  0  0  0  0  0
   -3.8190   -0.2365    1.9231 H   0  0  0  0  0  0  0  0  0  0  0  0
   -5.3446    0.5262    1.3832 H   0  0  0  0  0  0  0  0  0  0  0  0
   -4.1991   -2.1340    0.3800 H   0  0  0  0  0  0  0  0  0  0  0  0
   -5.5861   -1.9513    1.4657 H   0  0  0  0  0  0  0  0  0  0  0  0
   -5.6847   -1.3878   -0.2129 H   0  0  0  0  0  0  0  0  0  0  0  0
  1  2  1  0  0  0  0
  2  3  1  0  0  0  0
  3  4  2  0  0  0  0
  4  5  2  0  0  0  0
  4  6  2  0  0  0  0
  6  7  1  0  0  0  0
  7  8  1  0  0  0  0
  4  9  1  0  0  0  0
  9 10  1  0  0  0  0
 10 11  1  0  0  0  0
 11 12  1  0  0  0  0
 12 13  2  0  0  0  0
 12 14  2  0  0  0  0
 14 15  1  0  0  0  0
 15 16  1  0  0  0  0
 12 17  2  0  0  0  0
 17 18  1  0  0  0  0
 18 19  1  0  0  0  0
  1 20  1  0  0  0  0
  1 21  1  0  0  0  0
  1 22  1  0  0  0  0
  2 23  1  0  0  0  0
  2 24  1  0  0  0  0
  7 25  1  0  0  0  0
  7 26  1  0  0  0  0
  8 27  1  0  0  0  0
  8 28  1  0  0  0  0
  8 29  1  0  0  0  0
 10 30  1  0  0  0  0
 10 31  1  0  0  0  0
 15 32  1  0  0  0  0
 15 33  1  0  0  0  0
 16 34  1  0  0  0  0
 16 35  1  0  0  0  0
 16 36  1  0  0  0  0
 18 37  1  0  0  0  0
 18 38  1  0  0  0  0
 19 39  1  0  0  0  0
 19 40  1  0  0  0  0
 19 41  1  0  0  0  0
M  END
