 xtb: 6.7.1 (edcfbbe)
          04032520393D

 12 12  0     0  0            999 V2000
   -0.5556    1.3607    0.0001 C   0  0  0  0  0  0  0  0  0  0  0  0
    0.1467    0.2065    0.0001 C   0  0  0  0  0  0  0  0  0  0  0  0
   -0.5267   -1.0836    0.0001 C   0  0  0  0  0  0  0  0  0  0  0  0
    0.0116   -2.1711    0.0000 O   0  0  0  0  0  0  0  0  0  0  0  0
   -1.9075   -0.9648    0.0000 N   0  0  0  0  0  0  0  0  0  0  0  0
   -2.6510    0.1906   -0.0000 C   0  0  0  0  0  0  0  0  0  0  0  0
   -3.8641    0.1912   -0.0001 O   0  0  0  0  0  0  0  0  0  0  0  0
   -1.9117    1.3487    0.0001 N   0  0  0  0  0  0  0  0  0  0  0  0
    2.0423    0.1936   -0.0000 Br  0  0  0  0  0  0  0  0  0  0  0  0
   -0.0696    2.3252    0.0000 H   0  0  0  0  0  0  0  0  0  0  0  0
   -2.4343   -1.8343    0.0000 H   0  0  0  0  0  0  0  0  0  0  0  0
   -2.4327    2.2197    0.0000 H   0  0  0  0  0  0  0  0  0  0  0  0
  1  2  2  0  0  0  0
  2  3  1  0  0  0  0
  3  4  2  0  0  0  0
  3  5  1  0  0  0  0
  5  6  1  0  0  0  0
  6  7  2  0  0  0  0
  1  8  4  0  0  0  0
  6  8  1  0  0  0  0
  2  9  1  0  0  0  0
  1 10  1  0  0  0  0
  5 11  1  0  0  0  0
  8 12  1  0  0  0  0
M  END
