 xtb: 6.7.1 (edcfbbe)
          04092505213D

 41 40  0     0  0            999 V2000
    5.6313    1.0710   -1.2842 C   0  0  0  0  0  0  0  0  0  0  0  0
    4.3807    1.4067   -0.4971 C   0  0  0  0  0  0  0  0  0  0  0  0
    3.3556    0.4569   -0.8561 O   0  0  0  0  0  0  0  0  0  0  0  0
    2.1623    0.0819    0.1254 P   0  0  0  0  0  0  0  0  0  0  0  0
    2.7279   -0.2445    1.9772 S   0  0  0  0  0  0  0  0  0  0  0  0
    1.4911   -1.1224   -0.6459 O   0  0  0  0  0  0  0  0  0  0  0  0
    1.9336   -2.4904   -0.4992 C   0  0  0  0  0  0  0  0  0  0  0  0
    0.9349   -3.2725    0.3305 C   0  0  0  0  0  0  0  0  0  0  0  0
    0.7552    1.6032   -0.1966 S   0  0  0  0  0  0  0  0  0  0  0  0
   -0.2241    1.3223    1.3117 C   0  0  0  0  0  0  0  0  0  0  0  0
   -0.9549   -0.3301    1.4043 S   0  0  0  0  0  0  0  0  0  0  0  0
   -2.1328   -0.3277   -0.3670 P   0  0  0  0  0  0  0  0  0  0  0  0
   -1.3603   -0.6093   -2.1411 S   0  0  0  0  0  0  0  0  0  0  0  0
   -2.9443    1.0385   -0.2086 O   0  0  0  0  0  0  0  0  0  0  0  0
   -3.1244    2.0173   -1.2495 C   0  0  0  0  0  0  0  0  0  0  0  0
   -2.4164    3.3111   -0.8985 C   0  0  0  0  0  0  0  0  0  0  0  0
   -3.1391   -1.5135   -0.0755 O   0  0  0  0  0  0  0  0  0  0  0  0
   -3.7706   -1.8443    1.1841 C   0  0  0  0  0  0  0  0  0  0  0  0
   -4.6518   -0.7294    1.7054 C   0  0  0  0  0  0  0  0  0  0  0  0
    5.4156    1.0940   -2.3486 H   0  0  0  0  0  0  0  0  0  0  0  0
    6.4008    1.8011   -1.0558 H   0  0  0  0  0  0  0  0  0  0  0  0
    5.9876    0.0795   -1.0189 H   0  0  0  0  0  0  0  0  0  0  0  0
    4.0119    2.4060   -0.7410 H   0  0  0  0  0  0  0  0  0  0  0  0
    4.5564    1.3391    0.5821 H   0  0  0  0  0  0  0  0  0  0  0  0
    1.9969   -2.8757   -1.5182 H   0  0  0  0  0  0  0  0  0  0  0  0
    2.9241   -2.5013   -0.0352 H   0  0  0  0  0  0  0  0  0  0  0  0
   -0.0563   -3.1893   -0.1116 H   0  0  0  0  0  0  0  0  0  0  0  0
    1.2295   -4.3165    0.3567 H   0  0  0  0  0  0  0  0  0  0  0  0
    0.9007   -2.8821    1.3459 H   0  0  0  0  0  0  0  0  0  0  0  0
   -1.0055    2.0778    1.3254 H   0  0  0  0  0  0  0  0  0  0  0  0
    0.4248    1.4037    2.1839 H   0  0  0  0  0  0  0  0  0  0  0  0
   -2.7491    1.6061   -2.1925 H   0  0  0  0  0  0  0  0  0  0  0  0
   -4.2035    2.1662   -1.3215 H   0  0  0  0  0  0  0  0  0  0  0  0
   -2.7478    3.6706    0.0719 H   0  0  0  0  0  0  0  0  0  0  0  0
   -1.3375    3.1644   -0.8822 H   0  0  0  0  0  0  0  0  0  0  0  0
   -2.6552    4.0549   -1.6517 H   0  0  0  0  0  0  0  0  0  0  0  0
   -4.3508   -2.7367    0.9430 H   0  0  0  0  0  0  0  0  0  0  0  0
   -2.9895   -2.0961    1.9057 H   0  0  0  0  0  0  0  0  0  0  0  0
   -5.3847   -0.4469    0.9542 H   0  0  0  0  0  0  0  0  0  0  0  0
   -5.1672   -1.0743    2.5964 H   0  0  0  0  0  0  0  0  0  0  0  0
   -4.0500    0.1405    1.9573 H   0  0  0  0  0  0  0  0  0  0  0  0
  1  2  1  0  0  0  0
  2  3  1  0  0  0  0
  3  4  2  0  0  0  0
  4  5  2  0  0  0  0
  4  6  2  0  0  0  0
  6  7  1  0  0  0  0
  7  8  1  0  0  0  0
  4  9  1  0  0  0  0
  9 10  1  0  0  0  0
 10 11  1  0  0  0  0
 11 12  1  0  0  0  0
 12 13  2  0  0  0  0
 12 14  2  0  0  0  0
 14 15  1  0  0  0  0
 15 16  1  0  0  0  0
 12 17  2  0  0  0  0
 17 18  1  0  0  0  0
 18 19  1  0  0  0  0
  1 20  1  0  0  0  0
  1 21  1  0  0  0  0
  1 22  1  0  0  0  0
  2 23  1  0  0  0  0
  2 24  1  0  0  0  0
  7 25  1  0  0  0  0
  7 26  1  0  0  0  0
  8 27  1  0  0  0  0
  8 28  1  0  0  0  0
  8 29  1  0  0  0  0
 10 30  1  0  0  0  0
 10 31  1  0  0  0  0
 15 32  1  0  0  0  0
 15 33  1  0  0  0  0
 16 34  1  0  0  0  0
 16 35  1  0  0  0  0
 16 36  1  0  0  0  0
 18 37  1  0  0  0  0
 18 38  1  0  0  0  0
 19 39  1  0  0  0  0
 19 40  1  0  0  0  0
 19 41  1  0  0  0  0
M  END
