 xtb: 6.7.1 (edcfbbe)
          04032519413D

 19 19  0     0  0            999 V2000
   -2.5133   -0.7585    0.0034 C   0  0  0  0  0  0  0  0  0  0  0  0
   -1.2153   -0.0048    0.0002 C   0  0  0  0  0  0  0  0  0  0  0  0
   -1.2145    1.3804    0.0005 C   0  0  0  0  0  0  0  0  0  0  0  0
   -0.0274    2.0899   -0.0013 C   0  0  0  0  0  0  0  0  0  0  0  0
    1.1710    1.4049   -0.0010 C   0  0  0  0  0  0  0  0  0  0  0  0
    1.2140    0.0152   -0.0005 C   0  0  0  0  0  0  0  0  0  0  0  0
    0.0069   -0.6891   -0.0018 C   0  0  0  0  0  0  0  0  0  0  0  0
   -0.0533   -2.0559   -0.0039 O   0  0  0  0  0  0  0  0  0  0  0  0
    2.5665   -0.6458    0.0045 C   0  0  0  0  0  0  0  0  0  0  0  0
   -3.1005   -0.4992   -0.8760 H   0  0  0  0  0  0  0  0  0  0  0  0
   -2.3315   -1.8287    0.0031 H   0  0  0  0  0  0  0  0  0  0  0  0
   -3.0953   -0.4991    0.8861 H   0  0  0  0  0  0  0  0  0  0  0  0
   -2.1601    1.9022    0.0011 H   0  0  0  0  0  0  0  0  0  0  0  0
   -0.0374    3.1692   -0.0020 H   0  0  0  0  0  0  0  0  0  0  0  0
    2.1034    1.9505   -0.0007 H   0  0  0  0  0  0  0  0  0  0  0  0
    0.8366   -2.4350   -0.0178 H   0  0  0  0  0  0  0  0  0  0  0  0
    3.1209   -0.3354    0.8891 H   0  0  0  0  0  0  0  0  0  0  0  0
    2.5235   -1.7316    0.0016 H   0  0  0  0  0  0  0  0  0  0  0  0
    3.1313   -0.3300   -0.8713 H   0  0  0  0  0  0  0  0  0  0  0  0
  1  2  1  0  0  0  0
  2  3  4  0  0  0  0
  3  4  4  0  0  0  0
  4  5  4  0  0  0  0
  5  6  4  0  0  0  0
  2  7  4  0  0  0  0
  6  7  4  0  0  0  0
  7  8  1  0  0  0  0
  6  9  1  0  0  0  0
  1 10  1  0  0  0  0
  1 11  1  0  0  0  0
  1 12  1  0  0  0  0
  3 13  1  0  0  0  0
  4 14  1  0  0  0  0
  5 15  1  0  0  0  0
  8 16  1  0  0  0  0
  9 17  1  0  0  0  0
  9 18  1  0  0  0  0
  9 19  1  0  0  0  0
M  END
