 xtb: 6.7.1 (edcfbbe)
          04092507313D

 38 37  0     0  0            999 V2000
    3.0839   -1.7991    1.6815 C   0  0  0  0  0  0  0  0  0  0  0  0
    2.9247   -2.3610    0.2788 C   0  0  0  0  0  0  0  0  0  0  0  0
    2.7039   -1.3023   -0.6749 O   0  0  0  0  0  0  0  0  0  0  0  0
    1.4856   -1.0339   -1.0786 C   0  0  0  0  0  0  0  0  0  0  0  0
    0.4875   -1.6178   -0.6926 O   0  0  0  0  0  0  0  0  0  0  0  0
    1.4648    0.0640   -2.1181 C   0  0  0  0  0  0  0  0  0  0  0  0
    0.3155    1.0454   -1.8892 C   0  0  0  0  0  0  0  0  0  0  0  0
    0.2615    1.7418   -2.7307 H   0  0  0  0  0  0  0  0  0  0  0  0
    0.4709    1.8565   -0.6143 C   0  0  0  0  0  0  0  0  0  0  0  0
   -0.4451    2.0324    0.1639 O   0  0  0  0  0  0  0  0  0  0  0  0
    1.6785    2.3359   -0.4851 O   0  0  0  0  0  0  0  0  0  0  0  0
    2.0053    3.0931    0.7017 C   0  0  0  0  0  0  0  0  0  0  0  0
    2.5559    2.1735    1.7783 C   0  0  0  0  0  0  0  0  0  0  0  0
   -1.3307    0.2471   -1.8607 S   0  0  0  0  0  0  0  0  0  0  0  0
   -1.6130   -0.2922    0.1661 P   0  0  0  0  0  0  0  0  0  0  0  0
   -0.4538   -0.3676    1.7622 S   0  0  0  0  0  0  0  0  0  0  0  0
   -2.8822    0.6628    0.3619 O   0  0  0  0  0  0  0  0  0  0  0  0
   -3.5964    0.7277    1.5975 C   0  0  0  0  0  0  0  0  0  0  0  0
   -2.4065   -1.6820    0.0019 O   0  0  0  0  0  0  0  0  0  0  0  0
   -1.8661   -2.9817    0.2220 C   0  0  0  0  0  0  0  0  0  0  0  0
    3.8955   -1.0782    1.7087 H   0  0  0  0  0  0  0  0  0  0  0  0
    2.1641   -1.3114    2.0005 H   0  0  0  0  0  0  0  0  0  0  0  0
    3.3028   -2.6103    2.3676 H   0  0  0  0  0  0  0  0  0  0  0  0
    2.0821   -3.0561    0.2325 H   0  0  0  0  0  0  0  0  0  0  0  0
    3.8405   -2.8481   -0.0586 H   0  0  0  0  0  0  0  0  0  0  0  0
    1.3233   -0.4109   -3.0910 H   0  0  0  0  0  0  0  0  0  0  0  0
    2.4186    0.5910   -2.1013 H   0  0  0  0  0  0  0  0  0  0  0  0
    2.7541    3.8102    0.3654 H   0  0  0  0  0  0  0  0  0  0  0  0
    1.1056    3.6072    1.0491 H   0  0  0  0  0  0  0  0  0  0  0  0
    2.8397    2.7624    2.6439 H   0  0  0  0  0  0  0  0  0  0  0  0
    1.7993    1.4504    2.0802 H   0  0  0  0  0  0  0  0  0  0  0  0
    3.4250    1.6390    1.4055 H   0  0  0  0  0  0  0  0  0  0  0  0
   -2.8976    0.8147    2.4325 H   0  0  0  0  0  0  0  0  0  0  0  0
   -4.2094   -0.1655    1.7206 H   0  0  0  0  0  0  0  0  0  0  0  0
   -4.2184    1.6167    1.5301 H   0  0  0  0  0  0  0  0  0  0  0  0
   -1.1459   -2.9516    1.0417 H   0  0  0  0  0  0  0  0  0  0  0  0
   -1.3748   -3.3334   -0.6832 H   0  0  0  0  0  0  0  0  0  0  0  0
   -2.7120   -3.6155    0.4779 H   0  0  0  0  0  0  0  0  0  0  0  0
  1  2  1  0  0  0  0
  2  3  1  0  0  0  0
  3  4  4  0  0  0  0
  4  5  2  0  0  0  0
  4  6  1  0  0  0  0
  6  7  1  0  0  0  0
  7  8  1  0  0  0  0
  7  9  1  0  0  0  0
  9 10  2  0  0  0  0
  9 11  4  0  0  0  0
 11 12  1  0  0  0  0
 12 13  1  0  0  0  0
  7 14  1  0  0  0  0
 14 15  1  0  0  0  0
 15 16  2  0  0  0  0
 15 17  1  0  0  0  0
 17 18  1  0  0  0  0
 15 19  1  0  0  0  0
 19 20  1  0  0  0  0
  1 21  1  0  0  0  0
  1 22  1  0  0  0  0
  1 23  1  0  0  0  0
  2 24  1  0  0  0  0
  2 25  1  0  0  0  0
  6 26  1  0  0  0  0
  6 27  1  0  0  0  0
 12 28  1  0  0  0  0
 12 29  1  0  0  0  0
 13 30  1  0  0  0  0
 13 31  1  0  0  0  0
 13 32  1  0  0  0  0
 18 33  1  0  0  0  0
 18 34  1  0  0  0  0
 18 35  1  0  0  0  0
 20 36  1  0  0  0  0
 20 37  1  0  0  0  0
 20 38  1  0  0  0  0
M  END
