 xtb: 6.7.1 (edcfbbe)
          04092505213D

 41 40  0     0  0            999 V2000
    5.6246   -1.2714   -0.0191 C   0  0  0  0  0  0  0  0  0  0  0  0
    4.8539   -0.9592   -1.2850 C   0  0  0  0  0  0  0  0  0  0  0  0
    3.4343   -1.1587   -1.1224 O   0  0  0  0  0  0  0  0  0  0  0  0
    2.5529   -0.2423   -0.1782 P   0  0  0  0  0  0  0  0  0  0  0  0
    3.0346    1.6614   -0.1381 S   0  0  0  0  0  0  0  0  0  0  0  0
    2.6695   -1.0044    1.2130 O   0  0  0  0  0  0  0  0  0  0  0  0
    2.3348   -0.3936    2.4705 C   0  0  0  0  0  0  0  0  0  0  0  0
    0.8565   -0.0820    2.5818 C   0  0  0  0  0  0  0  0  0  0  0  0
    0.6623   -0.7831   -0.9710 S   0  0  0  0  0  0  0  0  0  0  0  0
    0.0721    0.8570   -1.4801 C   0  0  0  0  0  0  0  0  0  0  0  0
   -0.9467    1.6792   -0.2289 S   0  0  0  0  0  0  0  0  0  0  0  0
   -2.5841    0.3471   -0.3743 P   0  0  0  0  0  0  0  0  0  0  0  0
   -3.0782   -0.2554   -2.1671 S   0  0  0  0  0  0  0  0  0  0  0  0
   -3.7763    1.1228    0.3186 O   0  0  0  0  0  0  0  0  0  0  0  0
   -3.6588    2.0105    1.4561 C   0  0  0  0  0  0  0  0  0  0  0  0
   -3.2148    1.2873    2.7100 C   0  0  0  0  0  0  0  0  0  0  0  0
   -2.1197   -0.8183    0.6179 O   0  0  0  0  0  0  0  0  0  0  0  0
   -2.4395   -2.1989    0.3873 C   0  0  0  0  0  0  0  0  0  0  0  0
   -3.8712   -2.4946    0.7859 C   0  0  0  0  0  0  0  0  0  0  0  0
    5.3843   -0.5417    0.7528 H   0  0  0  0  0  0  0  0  0  0  0  0
    5.3669   -2.2637    0.3415 H   0  0  0  0  0  0  0  0  0  0  0  0
    6.6891   -1.2264   -0.2271 H   0  0  0  0  0  0  0  0  0  0  0  0
    5.1188   -1.6370   -2.0976 H   0  0  0  0  0  0  0  0  0  0  0  0
    5.0232    0.0771   -1.5949 H   0  0  0  0  0  0  0  0  0  0  0  0
    2.6493   -1.1309    3.2105 H   0  0  0  0  0  0  0  0  0  0  0  0
    2.9253    0.5217    2.5794 H   0  0  0  0  0  0  0  0  0  0  0  0
    0.5912    0.7093    1.8809 H   0  0  0  0  0  0  0  0  0  0  0  0
    0.2631   -0.9652    2.3566 H   0  0  0  0  0  0  0  0  0  0  0  0
    0.6342    0.2554    3.5893 H   0  0  0  0  0  0  0  0  0  0  0  0
   -0.5247    0.7139   -2.3805 H   0  0  0  0  0  0  0  0  0  0  0  0
    0.9231    1.5135   -1.6613 H   0  0  0  0  0  0  0  0  0  0  0  0
   -2.9582    2.8089    1.1972 H   0  0  0  0  0  0  0  0  0  0  0  0
   -4.6649    2.4201    1.5590 H   0  0  0  0  0  0  0  0  0  0  0  0
   -3.2037    1.9895    3.5376 H   0  0  0  0  0  0  0  0  0  0  0  0
   -3.8994    0.4748    2.9386 H   0  0  0  0  0  0  0  0  0  0  0  0
   -2.2149    0.8816    2.5742 H   0  0  0  0  0  0  0  0  0  0  0  0
   -2.2748   -2.4287   -0.6703 H   0  0  0  0  0  0  0  0  0  0  0  0
   -1.7227   -2.7521    0.9957 H   0  0  0  0  0  0  0  0  0  0  0  0
   -4.5480   -1.8910    0.1813 H   0  0  0  0  0  0  0  0  0  0  0  0
   -4.0859   -3.5448    0.6162 H   0  0  0  0  0  0  0  0  0  0  0  0
   -4.0287   -2.2581    1.8347 H   0  0  0  0  0  0  0  0  0  0  0  0
  1  2  1  0  0  0  0
  2  3  1  0  0  0  0
  3  4  2  0  0  0  0
  4  5  2  0  0  0  0
  4  6  2  0  0  0  0
  6  7  1  0  0  0  0
  7  8  1  0  0  0  0
  4  9  1  0  0  0  0
  9 10  1  0  0  0  0
 10 11  1  0  0  0  0
 11 12  1  0  0  0  0
 12 13  2  0  0  0  0
 12 14  2  0  0  0  0
 14 15  1  0  0  0  0
 15 16  1  0  0  0  0
 12 17  1  0  0  0  0
 17 18  1  0  0  0  0
 18 19  1  0  0  0  0
  1 20  1  0  0  0  0
  1 21  1  0  0  0  0
  1 22  1  0  0  0  0
  2 23  1  0  0  0  0
  2 24  1  0  0  0  0
  7 25  1  0  0  0  0
  7 26  1  0  0  0  0
  8 27  1  0  0  0  0
  8 28  1  0  0  0  0
  8 29  1  0  0  0  0
 10 30  1  0  0  0  0
 10 31  1  0  0  0  0
 15 32  1  0  0  0  0
 15 33  1  0  0  0  0
 16 34  1  0  0  0  0
 16 35  1  0  0  0  0
 16 36  1  0  0  0  0
 18 37  1  0  0  0  0
 18 38  1  0  0  0  0
 19 39  1  0  0  0  0
 19 40  1  0  0  0  0
 19 41  1  0  0  0  0
M  END
