 xtb: 6.7.1 (edcfbbe)
          04092505213D

 41 40  0     0  0            999 V2000
    1.7324    1.6106    2.4691 C   0  0  0  0  0  0  0  0  0  0  0  0
    3.0095    0.8009    2.5673 C   0  0  0  0  0  0  0  0  0  0  0  0
    3.4717    0.3562    1.2815 O   0  0  0  0  0  0  0  0  0  0  0  0
    2.7475   -0.7887    0.4406 P   0  0  0  0  0  0  0  0  0  0  0  0
    2.1306   -2.3335    1.4656 S   0  0  0  0  0  0  0  0  0  0  0  0
    3.8835   -1.1755   -0.5807 O   0  0  0  0  0  0  0  0  0  0  0  0
    4.4798   -0.2229   -1.5009 C   0  0  0  0  0  0  0  0  0  0  0  0
    4.1209   -0.5936   -2.9259 C   0  0  0  0  0  0  0  0  0  0  0  0
    1.2875    0.2268   -0.7513 S   0  0  0  0  0  0  0  0  0  0  0  0
   -0.1499   -0.8210   -0.4221 C   0  0  0  0  0  0  0  0  0  0  0  0
   -1.2468   -0.1741    0.8755 S   0  0  0  0  0  0  0  0  0  0  0  0
   -2.8474    0.5691   -0.3257 P   0  0  0  0  0  0  0  0  0  0  0  0
   -2.7402    0.1846   -2.2505 S   0  0  0  0  0  0  0  0  0  0  0  0
   -3.0258    2.0899    0.0720 O   0  0  0  0  0  0  0  0  0  0  0  0
   -2.3489    3.1611   -0.6092 C   0  0  0  0  0  0  0  0  0  0  0  0
   -0.8890    3.2565   -0.2132 C   0  0  0  0  0  0  0  0  0  0  0  0
   -4.1544    0.0673    0.4148 O   0  0  0  0  0  0  0  0  0  0  0  0
   -4.7783   -1.1915    0.1099 C   0  0  0  0  0  0  0  0  0  0  0  0
   -3.9223   -2.3776    0.5091 C   0  0  0  0  0  0  0  0  0  0  0  0
    1.8441    2.4013    1.7312 H   0  0  0  0  0  0  0  0  0  0  0  0
    0.8996    0.9694    2.1827 H   0  0  0  0  0  0  0  0  0  0  0  0
    1.5136    2.0497    3.4371 H   0  0  0  0  0  0  0  0  0  0  0  0
    2.8650   -0.0756    3.2069 H   0  0  0  0  0  0  0  0  0  0  0  0
    3.8375    1.4024    2.9457 H   0  0  0  0  0  0  0  0  0  0  0  0
    4.1344    0.7826   -1.2516 H   0  0  0  0  0  0  0  0  0  0  0  0
    5.5547   -0.2951   -1.3289 H   0  0  0  0  0  0  0  0  0  0  0  0
    3.0503   -0.4935   -3.0872 H   0  0  0  0  0  0  0  0  0  0  0  0
    4.6454    0.0682   -3.6076 H   0  0  0  0  0  0  0  0  0  0  0  0
    4.4124   -1.6206   -3.1268 H   0  0  0  0  0  0  0  0  0  0  0  0
    0.2034   -1.7967   -0.0872 H   0  0  0  0  0  0  0  0  0  0  0  0
   -0.7166   -0.8902   -1.3531 H   0  0  0  0  0  0  0  0  0  0  0  0
   -2.4510    3.0111   -1.6892 H   0  0  0  0  0  0  0  0  0  0  0  0
   -2.9035    4.0512   -0.3077 H   0  0  0  0  0  0  0  0  0  0  0  0
   -0.3332    2.4040   -0.6019 H   0  0  0  0  0  0  0  0  0  0  0  0
   -0.4655    4.1656   -0.6281 H   0  0  0  0  0  0  0  0  0  0  0  0
   -0.7970    3.2768    0.8698 H   0  0  0  0  0  0  0  0  0  0  0  0
   -5.7101   -1.1628    0.6766 H   0  0  0  0  0  0  0  0  0  0  0  0
   -4.9984   -1.2202   -0.9623 H   0  0  0  0  0  0  0  0  0  0  0  0
   -4.4967   -3.2906    0.3877 H   0  0  0  0  0  0  0  0  0  0  0  0
   -3.0377   -2.4340   -0.1245 H   0  0  0  0  0  0  0  0  0  0  0  0
   -3.6071   -2.2861    1.5457 H   0  0  0  0  0  0  0  0  0  0  0  0
  1  2  1  0  0  0  0
  2  3  1  0  0  0  0
  3  4  2  0  0  0  0
  4  5  2  0  0  0  0
  4  6  2  0  0  0  0
  6  7  1  0  0  0  0
  7  8  1  0  0  0  0
  4  9  1  0  0  0  0
  9 10  1  0  0  0  0
 10 11  1  0  0  0  0
 11 12  1  0  0  0  0
 12 13  2  0  0  0  0
 12 14  2  0  0  0  0
 14 15  1  0  0  0  0
 15 16  1  0  0  0  0
 12 17  2  0  0  0  0
 17 18  1  0  0  0  0
 18 19  1  0  0  0  0
  1 20  1  0  0  0  0
  1 21  1  0  0  0  0
  1 22  1  0  0  0  0
  2 23  1  0  0  0  0
  2 24  1  0  0  0  0
  7 25  1  0  0  0  0
  7 26  1  0  0  0  0
  8 27  1  0  0  0  0
  8 28  1  0  0  0  0
  8 29  1  0  0  0  0
 10 30  1  0  0  0  0
 10 31  1  0  0  0  0
 15 32  1  0  0  0  0
 15 33  1  0  0  0  0
 16 34  1  0  0  0  0
 16 35  1  0  0  0  0
 16 36  1  0  0  0  0
 18 37  1  0  0  0  0
 18 38  1  0  0  0  0
 19 39  1  0  0  0  0
 19 40  1  0  0  0  0
 19 41  1  0  0  0  0
M  END
