 xtb: 6.7.1 (edcfbbe)
          04092507313D

 38 37  0     0  0            999 V2000
    5.4926   -1.7432   -1.2458 C   0  0  0  0  0  0  0  0  0  0  0  0
    4.6444   -0.4820   -1.2082 C   0  0  0  0  0  0  0  0  0  0  0  0
    3.2423   -0.7994   -1.3015 O   0  0  0  0  0  0  0  0  0  0  0  0
    2.5877   -1.0761   -0.1911 C   0  0  0  0  0  0  0  0  0  0  0  0
    3.0770   -1.0833    0.9147 O   0  0  0  0  0  0  0  0  0  0  0  0
    1.1271   -1.3880   -0.4743 C   0  0  0  0  0  0  0  0  0  0  0  0
    0.4656   -0.2319   -1.2302 C   0  0  0  0  0  0  0  0  0  0  0  0
    0.9902   -0.0563   -2.1721 H   0  0  0  0  0  0  0  0  0  0  0  0
    0.4834    1.0231   -0.3850 C   0  0  0  0  0  0  0  0  0  0  0  0
   -0.5396    1.5436    0.0222 O   0  0  0  0  0  0  0  0  0  0  0  0
    1.6885    1.4489   -0.1456 O   0  0  0  0  0  0  0  0  0  0  0  0
    1.8632    2.5340    0.7966 C   0  0  0  0  0  0  0  0  0  0  0  0
    1.8436    2.0003    2.2192 C   0  0  0  0  0  0  0  0  0  0  0  0
   -1.2670   -0.5922   -1.6684 S   0  0  0  0  0  0  0  0  0  0  0  0
   -2.2825   -0.1556    0.1352 P   0  0  0  0  0  0  0  0  0  0  0  0
   -1.5520   -0.4162    1.9500 S   0  0  0  0  0  0  0  0  0  0  0  0
   -3.2420    1.1121   -0.0381 O   0  0  0  0  0  0  0  0  0  0  0  0
   -3.0923    2.3827    0.5931 C   0  0  0  0  0  0  0  0  0  0  0  0
   -3.3572   -1.2991   -0.2182 O   0  0  0  0  0  0  0  0  0  0  0  0
   -4.4597   -1.5814    0.6459 C   0  0  0  0  0  0  0  0  0  0  0  0
    5.2855   -2.3592   -0.3736 H   0  0  0  0  0  0  0  0  0  0  0  0
    5.2743   -2.3151   -2.1432 H   0  0  0  0  0  0  0  0  0  0  0  0
    6.5427   -1.4701   -1.2419 H   0  0  0  0  0  0  0  0  0  0  0  0
    4.8377    0.1531   -2.0725 H   0  0  0  0  0  0  0  0  0  0  0  0
    4.8144    0.0711   -0.2805 H   0  0  0  0  0  0  0  0  0  0  0  0
    0.6219   -1.5716    0.4767 H   0  0  0  0  0  0  0  0  0  0  0  0
    1.0698   -2.2850   -1.0917 H   0  0  0  0  0  0  0  0  0  0  0  0
    2.8341    2.9561    0.5393 H   0  0  0  0  0  0  0  0  0  0  0  0
    1.0683    3.2668    0.6388 H   0  0  0  0  0  0  0  0  0  0  0  0
    0.8652    1.5863    2.4582 H   0  0  0  0  0  0  0  0  0  0  0  0
    2.5825    1.2103    2.3329 H   0  0  0  0  0  0  0  0  0  0  0  0
    2.0648    2.8051    2.9117 H   0  0  0  0  0  0  0  0  0  0  0  0
   -2.5640    2.2722    1.5411 H   0  0  0  0  0  0  0  0  0  0  0  0
   -4.1016    2.7531    0.7592 H   0  0  0  0  0  0  0  0  0  0  0  0
   -2.5372    3.0511   -0.0617 H   0  0  0  0  0  0  0  0  0  0  0  0
   -4.8597   -2.5352    0.3111 H   0  0  0  0  0  0  0  0  0  0  0  0
   -5.2124   -0.7982    0.5612 H   0  0  0  0  0  0  0  0  0  0  0  0
   -4.1166   -1.6551    1.6804 H   0  0  0  0  0  0  0  0  0  0  0  0
  1  2  1  0  0  0  0
  2  3  1  0  0  0  0
  3  4  1  0  0  0  0
  4  5  2  0  0  0  0
  4  6  1  0  0  0  0
  6  7  1  0  0  0  0
  7  8  1  0  0  0  0
  7  9  1  0  0  0  0
  9 10  2  0  0  0  0
  9 11  4  0  0  0  0
 11 12  1  0  0  0  0
 12 13  1  0  0  0  0
  7 14  1  0  0  0  0
 14 15  1  0  0  0  0
 15 16  2  0  0  0  0
 15 17  2  0  0  0  0
 17 18  1  0  0  0  0
 15 19  1  0  0  0  0
 19 20  1  0  0  0  0
  1 21  1  0  0  0  0
  1 22  1  0  0  0  0
  1 23  1  0  0  0  0
  2 24  1  0  0  0  0
  2 25  1  0  0  0  0
  6 26  1  0  0  0  0
  6 27  1  0  0  0  0
 12 28  1  0  0  0  0
 12 29  1  0  0  0  0
 13 30  1  0  0  0  0
 13 31  1  0  0  0  0
 13 32  1  0  0  0  0
 18 33  1  0  0  0  0
 18 34  1  0  0  0  0
 18 35  1  0  0  0  0
 20 36  1  0  0  0  0
 20 37  1  0  0  0  0
 20 38  1  0  0  0  0
M  END
