 xtb: 6.7.1 (edcfbbe)
          04092505213D

 41 40  0     0  0            999 V2000
    3.2506   -3.3266    0.2114 C   0  0  0  0  0  0  0  0  0  0  0  0
    3.3350   -1.8553    0.5575 C   0  0  0  0  0  0  0  0  0  0  0  0
    2.3997   -1.1552   -0.3000 O   0  0  0  0  0  0  0  0  0  0  0  0
    2.3678    0.4236   -0.3327 P   0  0  0  0  0  0  0  0  0  0  0  0
    4.0807    1.3317   -0.6288 S   0  0  0  0  0  0  0  0  0  0  0  0
    1.7251    0.7707    1.0976 O   0  0  0  0  0  0  0  0  0  0  0  0
    1.8626    2.0811    1.6675 C   0  0  0  0  0  0  0  0  0  0  0  0
    1.0047    3.0989    0.9422 C   0  0  0  0  0  0  0  0  0  0  0  0
    0.8665    0.7309   -1.7807 S   0  0  0  0  0  0  0  0  0  0  0  0
   -0.0557   -0.8463   -1.7099 C   0  0  0  0  0  0  0  0  0  0  0  0
   -0.6625   -1.3073   -0.0788 S   0  0  0  0  0  0  0  0  0  0  0  0
   -2.2815    0.0799    0.0928 P   0  0  0  0  0  0  0  0  0  0  0  0
   -2.6869    1.1762   -1.4775 S   0  0  0  0  0  0  0  0  0  0  0  0
   -1.9296    0.9618    1.3533 O   0  0  0  0  0  0  0  0  0  0  0  0
   -1.3247    0.4982    2.5854 C   0  0  0  0  0  0  0  0  0  0  0  0
   -2.0768   -0.6473    3.2267 C   0  0  0  0  0  0  0  0  0  0  0  0
   -3.5171   -0.7788    0.6177 O   0  0  0  0  0  0  0  0  0  0  0  0
   -4.4395   -1.4230   -0.2735 C   0  0  0  0  0  0  0  0  0  0  0  0
   -3.7994   -2.5666   -1.0350 C   0  0  0  0  0  0  0  0  0  0  0  0
    2.2346   -3.6819    0.3591 H   0  0  0  0  0  0  0  0  0  0  0  0
    3.5346   -3.4849   -0.8250 H   0  0  0  0  0  0  0  0  0  0  0  0
    3.9249   -3.8817    0.8553 H   0  0  0  0  0  0  0  0  0  0  0  0
    4.3356   -1.4480    0.3804 H   0  0  0  0  0  0  0  0  0  0  0  0
    3.0506   -1.6702    1.5957 H   0  0  0  0  0  0  0  0  0  0  0  0
    1.5589    1.9607    2.7081 H   0  0  0  0  0  0  0  0  0  0  0  0
    2.9180    2.3695    1.6175 H   0  0  0  0  0  0  0  0  0  0  0  0
    1.3577    3.2156   -0.0832 H   0  0  0  0  0  0  0  0  0  0  0  0
   -0.0353    2.7794    0.9136 H   0  0  0  0  0  0  0  0  0  0  0  0
    1.0709    4.0569    1.4473 H   0  0  0  0  0  0  0  0  0  0  0  0
    0.5858   -1.6546   -2.0476 H   0  0  0  0  0  0  0  0  0  0  0  0
   -0.8938   -0.6851   -2.3880 H   0  0  0  0  0  0  0  0  0  0  0  0
   -0.2940    0.2071    2.3676 H   0  0  0  0  0  0  0  0  0  0  0  0
   -1.3361    1.3893    3.2153 H   0  0  0  0  0  0  0  0  0  0  0  0
   -2.0115   -1.5365    2.6030 H   0  0  0  0  0  0  0  0  0  0  0  0
   -1.6335   -0.8608    4.1947 H   0  0  0  0  0  0  0  0  0  0  0  0
   -3.1230   -0.3851    3.3598 H   0  0  0  0  0  0  0  0  0  0  0  0
   -5.2355   -1.7748    0.3842 H   0  0  0  0  0  0  0  0  0  0  0  0
   -4.8345   -0.6729   -0.9660 H   0  0  0  0  0  0  0  0  0  0  0  0
   -3.0678   -2.1797   -1.7426 H   0  0  0  0  0  0  0  0  0  0  0  0
   -3.3027   -3.2482   -0.3494 H   0  0  0  0  0  0  0  0  0  0  0  0
   -4.5656   -3.1037   -1.5848 H   0  0  0  0  0  0  0  0  0  0  0  0
  1  2  1  0  0  0  0
  2  3  1  0  0  0  0
  3  4  2  0  0  0  0
  4  5  2  0  0  0  0
  4  6  1  0  0  0  0
  6  7  1  0  0  0  0
  7  8  1  0  0  0  0
  4  9  1  0  0  0  0
  9 10  1  0  0  0  0
 10 11  1  0  0  0  0
 11 12  1  0  0  0  0
 12 13  2  0  0  0  0
 12 14  2  0  0  0  0
 14 15  1  0  0  0  0
 15 16  1  0  0  0  0
 12 17  2  0  0  0  0
 17 18  1  0  0  0  0
 18 19  1  0  0  0  0
  1 20  1  0  0  0  0
  1 21  1  0  0  0  0
  1 22  1  0  0  0  0
  2 23  1  0  0  0  0
  2 24  1  0  0  0  0
  7 25  1  0  0  0  0
  7 26  1  0  0  0  0
  8 27  1  0  0  0  0
  8 28  1  0  0  0  0
  8 29  1  0  0  0  0
 10 30  1  0  0  0  0
 10 31  1  0  0  0  0
 15 32  1  0  0  0  0
 15 33  1  0  0  0  0
 16 34  1  0  0  0  0
 16 35  1  0  0  0  0
 16 36  1  0  0  0  0
 18 37  1  0  0  0  0
 18 38  1  0  0  0  0
 19 39  1  0  0  0  0
 19 40  1  0  0  0  0
 19 41  1  0  0  0  0
M  END
