 xtb: 6.7.1 (edcfbbe)
          04032519423D

 20 20  0     0  0            999 V2000
    0.5463    1.4249    0.4924 C   0  0  0  0  0  0  0  0  0  0  0  0
    1.4643    0.3588   -0.1147 C   0  0  0  0  0  0  0  0  0  0  0  0
    1.6310    0.6108   -1.1746 H   0  0  0  0  0  0  0  0  0  0  0  0
    0.7573   -1.0109   -0.0587 C   0  0  0  0  0  0  0  0  0  0  0  0
    1.1155   -1.5302    0.8413 H   0  0  0  0  0  0  0  0  0  0  0  0
   -0.7628   -0.8625    0.0926 C   0  0  0  0  0  0  0  0  0  0  0  0
   -1.2278   -1.7397   -0.3820 H   0  0  0  0  0  0  0  0  0  0  0  0
   -1.2889    0.3791   -0.6434 C   0  0  0  0  0  0  0  0  0  0  0  0
   -1.1739    0.2170   -1.7312 H   0  0  0  0  0  0  0  0  0  0  0  0
   -0.6116    1.5721   -0.3116 O   0  0  0  0  0  0  0  0  0  0  0  0
   -2.6350    0.5081   -0.3108 O   0  0  0  0  0  0  0  0  0  0  0  0
   -1.0848   -0.8179    1.4581 O   0  0  0  0  0  0  0  0  0  0  0  0
    0.9969   -1.7723   -1.2161 O   0  0  0  0  0  0  0  0  0  0  0  0
    2.6861    0.2340    0.5692 O   0  0  0  0  0  0  0  0  0  0  0  0
    1.0157    2.4097    0.4822 H   0  0  0  0  0  0  0  0  0  0  0  0
    0.2880    1.1449    1.5202 H   0  0  0  0  0  0  0  0  0  0  0  0
   -2.9643    1.3647   -0.6227 H   0  0  0  0  0  0  0  0  0  0  0  0
   -2.0279   -0.5976    1.5329 H   0  0  0  0  0  0  0  0  0  0  0  0
    1.9328   -2.0198   -1.2450 H   0  0  0  0  0  0  0  0  0  0  0  0
    3.1675    1.0735    0.5438 H   0  0  0  0  0  0  0  0  0  0  0  0
  1  2  1  0  0  0  0
  2  3  1  0  0  0  0
  2  4  1  0  0  0  0
  4  5  1  0  0  0  0
  4  6  1  0  0  0  0
  6  7  1  0  0  0  0
  6  8  1  0  0  0  0
  8  9  1  0  0  0  0
  1 10  1  0  0  0  0
  8 10  1  0  0  0  0
  8 11  1  0  0  0  0
  6 12  1  0  0  0  0
  4 13  1  0  0  0  0
  2 14  1  0  0  0  0
  1 15  1  0  0  0  0
  1 16  1  0  0  0  0
 11 17  1  0  0  0  0
 12 18  1  0  0  0  0
 13 19  1  0  0  0  0
 14 20  1  0  0  0  0
M  END
