 xtb: 6.7.1 (edcfbbe)
          04092505203D

 41 40  0     0  0            999 V2000
    4.2235   -0.8642   -2.4080 C   0  0  0  0  0  0  0  0  0  0  0  0
    4.4507   -1.3183   -0.9805 C   0  0  0  0  0  0  0  0  0  0  0  0
    3.2152   -1.5172   -0.2722 O   0  0  0  0  0  0  0  0  0  0  0  0
    2.2630   -0.3137    0.1371 P   0  0  0  0  0  0  0  0  0  0  0  0
    3.1764    1.3197    0.7310 S   0  0  0  0  0  0  0  0  0  0  0  0
    1.3103   -1.0060    1.1979 O   0  0  0  0  0  0  0  0  0  0  0  0
    1.5829   -0.9479    2.6152 C   0  0  0  0  0  0  0  0  0  0  0  0
    2.8243   -1.7329    2.9822 C   0  0  0  0  0  0  0  0  0  0  0  0
    0.9228   -0.1238   -1.4880 S   0  0  0  0  0  0  0  0  0  0  0  0
    0.2458    1.4831   -0.9870 C   0  0  0  0  0  0  0  0  0  0  0  0
   -0.7872    1.3871    0.4901 S   0  0  0  0  0  0  0  0  0  0  0  0
   -2.3810    0.2943   -0.4292 P   0  0  0  0  0  0  0  0  0  0  0  0
   -2.7476    0.7437   -2.2955 S   0  0  0  0  0  0  0  0  0  0  0  0
   -3.5514    0.4302    0.6361 O   0  0  0  0  0  0  0  0  0  0  0  0
   -4.0106    1.6668    1.2152 C   0  0  0  0  0  0  0  0  0  0  0  0
   -4.3880    2.6990    0.1742 C   0  0  0  0  0  0  0  0  0  0  0  0
   -2.0186   -1.2354   -0.3188 O   0  0  0  0  0  0  0  0  0  0  0  0
   -1.8031   -1.9217    0.9367 C   0  0  0  0  0  0  0  0  0  0  0  0
   -3.0188   -2.7507    1.2959 C   0  0  0  0  0  0  0  0  0  0  0  0
    3.5422   -1.5418   -2.9169 H   0  0  0  0  0  0  0  0  0  0  0  0
    3.7918    0.1360   -2.4178 H   0  0  0  0  0  0  0  0  0  0  0  0
    5.1721   -0.8431   -2.9348 H   0  0  0  0  0  0  0  0  0  0  0  0
    5.0478   -0.5811   -0.4340 H   0  0  0  0  0  0  0  0  0  0  0  0
    4.9360   -2.2944   -0.9406 H   0  0  0  0  0  0  0  0  0  0  0  0
    1.6877    0.1030    2.9031 H   0  0  0  0  0  0  0  0  0  0  0  0
    0.6876   -1.3705    3.0729 H   0  0  0  0  0  0  0  0  0  0  0  0
    2.7499   -2.7511    2.6096 H   0  0  0  0  0  0  0  0  0  0  0  0
    3.7033   -1.2612    2.5444 H   0  0  0  0  0  0  0  0  0  0  0  0
    2.9344   -1.7482    4.0620 H   0  0  0  0  0  0  0  0  0  0  0  0
   -0.3555    1.8391   -1.8240 H   0  0  0  0  0  0  0  0  0  0  0  0
    1.0621    2.1680   -0.7570 H   0  0  0  0  0  0  0  0  0  0  0  0
   -4.8752    1.3658    1.8095 H   0  0  0  0  0  0  0  0  0  0  0  0
   -3.2227    2.0490    1.8703 H   0  0  0  0  0  0  0  0  0  0  0  0
   -3.5086    3.0000   -0.3935 H   0  0  0  0  0  0  0  0  0  0  0  0
   -5.1187    2.2898   -0.5193 H   0  0  0  0  0  0  0  0  0  0  0  0
   -4.8068    3.5708    0.6664 H   0  0  0  0  0  0  0  0  0  0  0  0
   -0.9237   -2.5465    0.7663 H   0  0  0  0  0  0  0  0  0  0  0  0
   -1.5821   -1.1825    1.7119 H   0  0  0  0  0  0  0  0  0  0  0  0
   -2.8194   -3.3014    2.2097 H   0  0  0  0  0  0  0  0  0  0  0  0
   -3.8810   -2.1054    1.4430 H   0  0  0  0  0  0  0  0  0  0  0  0
   -3.2392   -3.4503    0.4944 H   0  0  0  0  0  0  0  0  0  0  0  0
  1  2  1  0  0  0  0
  2  3  1  0  0  0  0
  3  4  2  0  0  0  0
  4  5  2  0  0  0  0
  4  6  2  0  0  0  0
  6  7  1  0  0  0  0
  7  8  1  0  0  0  0
  4  9  1  0  0  0  0
  9 10  1  0  0  0  0
 10 11  1  0  0  0  0
 11 12  1  0  0  0  0
 12 13  2  0  0  0  0
 12 14  2  0  0  0  0
 14 15  1  0  0  0  0
 15 16  1  0  0  0  0
 12 17  2  0  0  0  0
 17 18  1  0  0  0  0
 18 19  1  0  0  0  0
  1 20  1  0  0  0  0
  1 21  1  0  0  0  0
  1 22  1  0  0  0  0
  2 23  1  0  0  0  0
  2 24  1  0  0  0  0
  7 25  1  0  0  0  0
  7 26  1  0  0  0  0
  8 27  1  0  0  0  0
  8 28  1  0  0  0  0
  8 29  1  0  0  0  0
 10 30  1  0  0  0  0
 10 31  1  0  0  0  0
 15 32  1  0  0  0  0
 15 33  1  0  0  0  0
 16 34  1  0  0  0  0
 16 35  1  0  0  0  0
 16 36  1  0  0  0  0
 18 37  1  0  0  0  0
 18 38  1  0  0  0  0
 19 39  1  0  0  0  0
 19 40  1  0  0  0  0
 19 41  1  0  0  0  0
M  END
