 xtb: 6.7.1 (edcfbbe)
          04092505213D

 41 40  0     0  0            999 V2000
    3.9586    0.4418   -2.6650 C   0  0  0  0  0  0  0  0  0  0  0  0
    4.4559   -0.1765   -1.3733 C   0  0  0  0  0  0  0  0  0  0  0  0
    3.3748   -0.6349   -0.5415 O   0  0  0  0  0  0  0  0  0  0  0  0
    2.4085    0.3883    0.1900 P   0  0  0  0  0  0  0  0  0  0  0  0
    3.1940    2.0658    0.8218 S   0  0  0  0  0  0  0  0  0  0  0  0
    1.9123   -0.6174    1.3085 O   0  0  0  0  0  0  0  0  0  0  0  0
    1.2333   -0.1603    2.4944 C   0  0  0  0  0  0  0  0  0  0  0  0
    1.1307   -1.3407    3.4380 C   0  0  0  0  0  0  0  0  0  0  0  0
    0.7511    0.6195   -1.1284 S   0  0  0  0  0  0  0  0  0  0  0  0
    0.2838   -1.1279   -1.2734 C   0  0  0  0  0  0  0  0  0  0  0  0
   -0.7659   -1.7225    0.0886 S   0  0  0  0  0  0  0  0  0  0  0  0
   -2.2769   -0.2724   -0.0927 P   0  0  0  0  0  0  0  0  0  0  0  0
   -2.7666    0.3451   -1.8925 S   0  0  0  0  0  0  0  0  0  0  0  0
   -1.7136    0.8109    0.9263 O   0  0  0  0  0  0  0  0  0  0  0  0
   -2.2949    2.1299    1.0376 C   0  0  0  0  0  0  0  0  0  0  0  0
   -1.4530    3.1463    0.2917 C   0  0  0  0  0  0  0  0  0  0  0  0
   -3.5027   -0.8442    0.7453 O   0  0  0  0  0  0  0  0  0  0  0  0
   -4.5364   -1.6473    0.1486 C   0  0  0  0  0  0  0  0  0  0  0  0
   -4.0255   -3.0130   -0.2625 C   0  0  0  0  0  0  0  0  0  0  0  0
    4.8084    0.6989   -3.2892 H   0  0  0  0  0  0  0  0  0  0  0  0
    3.3173   -0.2533   -3.2008 H   0  0  0  0  0  0  0  0  0  0  0  0
    3.3930    1.3481   -2.4494 H   0  0  0  0  0  0  0  0  0  0  0  0
    5.0488    0.5475   -0.8057 H   0  0  0  0  0  0  0  0  0  0  0  0
    5.0455   -1.0760   -1.5562 H   0  0  0  0  0  0  0  0  0  0  0  0
    1.8094    0.6629    2.9298 H   0  0  0  0  0  0  0  0  0  0  0  0
    0.2414    0.2100    2.2175 H   0  0  0  0  0  0  0  0  0  0  0  0
    2.1230   -1.7105    3.6789 H   0  0  0  0  0  0  0  0  0  0  0  0
    0.6308   -1.0271    4.3484 H   0  0  0  0  0  0  0  0  0  0  0  0
    0.5608   -2.1372    2.9670 H   0  0  0  0  0  0  0  0  0  0  0  0
    1.1748   -1.7517   -1.2718 H   0  0  0  0  0  0  0  0  0  0  0  0
   -0.2654   -1.2108   -2.2098 H   0  0  0  0  0  0  0  0  0  0  0  0
   -3.3161    2.1066    0.6472 H   0  0  0  0  0  0  0  0  0  0  0  0
   -2.3169    2.3372    2.1088 H   0  0  0  0  0  0  0  0  0  0  0  0
   -1.8685    4.1371    0.4442 H   0  0  0  0  0  0  0  0  0  0  0  0
   -0.4273    3.1289    0.6536 H   0  0  0  0  0  0  0  0  0  0  0  0
   -1.4461    2.9222   -0.7732 H   0  0  0  0  0  0  0  0  0  0  0  0
   -5.2967   -1.7169    0.9275 H   0  0  0  0  0  0  0  0  0  0  0  0
   -4.9359   -1.1088   -0.7169 H   0  0  0  0  0  0  0  0  0  0  0  0
   -3.5301   -3.4986    0.5744 H   0  0  0  0  0  0  0  0  0  0  0  0
   -4.8592   -3.6239   -0.5933 H   0  0  0  0  0  0  0  0  0  0  0  0
   -3.3145   -2.9124   -1.0815 H   0  0  0  0  0  0  0  0  0  0  0  0
  1  2  1  0  0  0  0
  2  3  1  0  0  0  0
  3  4  2  0  0  0  0
  4  5  2  0  0  0  0
  4  6  2  0  0  0  0
  6  7  1  0  0  0  0
  7  8  1  0  0  0  0
  4  9  1  0  0  0  0
  9 10  1  0  0  0  0
 10 11  1  0  0  0  0
 11 12  1  0  0  0  0
 12 13  2  0  0  0  0
 12 14  1  0  0  0  0
 14 15  1  0  0  0  0
 15 16  1  0  0  0  0
 12 17  2  0  0  0  0
 17 18  1  0  0  0  0
 18 19  1  0  0  0  0
  1 20  1  0  0  0  0
  1 21  1  0  0  0  0
  1 22  1  0  0  0  0
  2 23  1  0  0  0  0
  2 24  1  0  0  0  0
  7 25  1  0  0  0  0
  7 26  1  0  0  0  0
  8 27  1  0  0  0  0
  8 28  1  0  0  0  0
  8 29  1  0  0  0  0
 10 30  1  0  0  0  0
 10 31  1  0  0  0  0
 15 32  1  0  0  0  0
 15 33  1  0  0  0  0
 16 34  1  0  0  0  0
 16 35  1  0  0  0  0
 16 36  1  0  0  0  0
 18 37  1  0  0  0  0
 18 38  1  0  0  0  0
 19 39  1  0  0  0  0
 19 40  1  0  0  0  0
 19 41  1  0  0  0  0
M  END
