 xtb: 6.7.1 (edcfbbe)
          04032520443D

 10 10  0     0  0            999 V2000
   -1.7849   -0.3850    0.4962 C   0  0  0  0  0  0  0  0  0  0  0  0
   -0.7542   -0.4244   -0.6325 C   0  0  0  0  0  0  0  0  0  0  0  0
    0.4979    0.1147   -0.1148 N   0  0  0  0  0  0  0  0  0  0  0  0
    0.6941    1.3080   -0.2226 O   0  0  0  0  0  0  0  0  0  0  0  0
    1.2652   -0.6507    0.4324 O   0  0  0  0  0  0  0  0  0  0  0  0
   -2.7246   -0.7878    0.1334 H   0  0  0  0  0  0  0  0  0  0  0  0
   -1.4464   -0.9835    1.3384 H   0  0  0  0  0  0  0  0  0  0  0  0
   -1.9447    0.6378    0.8284 H   0  0  0  0  0  0  0  0  0  0  0  0
   -1.0740    0.2040   -1.4637 H   0  0  0  0  0  0  0  0  0  0  0  0
   -0.5740   -1.4525   -0.9465 H   0  0  0  0  0  0  0  0  0  0  0  0
  1  2  1  0  0  0  0
  2  3  1  0  0  0  0
  3  4  4  0  0  0  0
  3  5  4  0  0  0  0
  4  5  1  0  0  0  0
  1  6  1  0  0  0  0
  1  7  1  0  0  0  0
  1  8  1  0  0  0  0
  2  9  1  0  0  0  0
  2 10  1  0  0  0  0
M  END
