 xtb: 6.7.1 (edcfbbe)
          04092507313D

 38 37  0     0  0            999 V2000
    4.4377   -2.8103   -2.4599 C   0  0  0  0  0  0  0  0  0  0  0  0
    3.8424   -1.4590   -2.0970 C   0  0  0  0  0  0  0  0  0  0  0  0
    2.6291   -1.6096   -1.3377 O   0  0  0  0  0  0  0  0  0  0  0  0
    2.7317   -1.7900   -0.0322 C   0  0  0  0  0  0  0  0  0  0  0  0
    3.7752   -1.8875    0.5711 O   0  0  0  0  0  0  0  0  0  0  0  0
    1.3659   -1.9228    0.6210 C   0  0  0  0  0  0  0  0  0  0  0  0
    0.4521   -0.7845    0.1835 C   0  0  0  0  0  0  0  0  0  0  0  0
    0.2837   -0.8285   -0.9005 H   0  0  0  0  0  0  0  0  0  0  0  0
    1.0917    0.5635    0.4627 C   0  0  0  0  0  0  0  0  0  0  0  0
    2.2776    0.7604    0.3243 O   0  0  0  0  0  0  0  0  0  0  0  0
    0.2111    1.4709    0.8237 O   0  0  0  0  0  0  0  0  0  0  0  0
    0.6649    2.8143    1.0883 C   0  0  0  0  0  0  0  0  0  0  0  0
    1.0610    2.9658    2.5470 C   0  0  0  0  0  0  0  0  0  0  0  0
   -1.1748   -0.9283    0.9927 S   0  0  0  0  0  0  0  0  0  0  0  0
   -2.2205    0.5336   -0.1510 P   0  0  0  0  0  0  0  0  0  0  0  0
   -1.4668    0.9843   -1.9019 S   0  0  0  0  0  0  0  0  0  0  0  0
   -3.6913   -0.0989   -0.2149 O   0  0  0  0  0  0  0  0  0  0  0  0
   -3.9623   -1.2739   -0.9864 C   0  0  0  0  0  0  0  0  0  0  0  0
   -2.5064    1.7950    0.7536 O   0  0  0  0  0  0  0  0  0  0  0  0
   -3.1216    1.6802    2.0525 C   0  0  0  0  0  0  0  0  0  0  0  0
    5.3101   -2.6587   -3.0869 H   0  0  0  0  0  0  0  0  0  0  0  0
    4.7375   -3.3391   -1.5583 H   0  0  0  0  0  0  0  0  0  0  0  0
    3.7076   -3.4080   -2.9987 H   0  0  0  0  0  0  0  0  0  0  0  0
    3.5379   -0.9041   -2.9849 H   0  0  0  0  0  0  0  0  0  0  0  0
    4.5460   -0.8673   -1.5043 H   0  0  0  0  0  0  0  0  0  0  0  0
    1.5025   -1.9197    1.7026 H   0  0  0  0  0  0  0  0  0  0  0  0
    0.9286   -2.8753    0.3183 H   0  0  0  0  0  0  0  0  0  0  0  0
    1.5076    3.0277    0.4250 H   0  0  0  0  0  0  0  0  0  0  0  0
   -0.1888    3.4423    0.8305 H   0  0  0  0  0  0  0  0  0  0  0  0
    1.3372    3.9981    2.7338 H   0  0  0  0  0  0  0  0  0  0  0  0
    0.2313    2.6934    3.1935 H   0  0  0  0  0  0  0  0  0  0  0  0
    1.9124    2.3266    2.7707 H   0  0  0  0  0  0  0  0  0  0  0  0
   -5.0454   -1.3581   -1.0215 H   0  0  0  0  0  0  0  0  0  0  0  0
   -3.5244   -2.1454   -0.5001 H   0  0  0  0  0  0  0  0  0  0  0  0
   -3.5566   -1.1640   -1.9934 H   0  0  0  0  0  0  0  0  0  0  0  0
   -4.1479    1.3343    1.9472 H   0  0  0  0  0  0  0  0  0  0  0  0
   -3.0932    2.6829    2.4709 H   0  0  0  0  0  0  0  0  0  0  0  0
   -2.5555    0.9846    2.6721 H   0  0  0  0  0  0  0  0  0  0  0  0
  1  2  1  0  0  0  0
  2  3  1  0  0  0  0
  3  4  1  0  0  0  0
  4  5  2  0  0  0  0
  4  6  1  0  0  0  0
  6  7  1  0  0  0  0
  7  8  1  0  0  0  0
  7  9  1  0  0  0  0
  9 10  2  0  0  0  0
  9 11  1  0  0  0  0
 11 12  1  0  0  0  0
 12 13  1  0  0  0  0
  7 14  1  0  0  0  0
 14 15  1  0  0  0  0
 15 16  2  0  0  0  0
 15 17  1  0  0  0  0
 17 18  1  0  0  0  0
 15 19  2  0  0  0  0
 19 20  1  0  0  0  0
  1 21  1  0  0  0  0
  1 22  1  0  0  0  0
  1 23  1  0  0  0  0
  2 24  1  0  0  0  0
  2 25  1  0  0  0  0
  6 26  1  0  0  0  0
  6 27  1  0  0  0  0
 12 28  1  0  0  0  0
 12 29  1  0  0  0  0
 13 30  1  0  0  0  0
 13 31  1  0  0  0  0
 13 32  1  0  0  0  0
 18 33  1  0  0  0  0
 18 34  1  0  0  0  0
 18 35  1  0  0  0  0
 20 36  1  0  0  0  0
 20 37  1  0  0  0  0
 20 38  1  0  0  0  0
M  END
