 xtb: 6.7.1 (edcfbbe)
          04092505203D

 41 40  0     0  0            999 V2000
   -0.0039   -2.2790    2.3865 C   0  0  0  0  0  0  0  0  0  0  0  0
    1.3456   -2.0581    1.7352 C   0  0  0  0  0  0  0  0  0  0  0  0
    1.5173   -0.6465    1.4819 O   0  0  0  0  0  0  0  0  0  0  0  0
    2.3637   -0.0502    0.2840 P   0  0  0  0  0  0  0  0  0  0  0  0
    3.2265   -1.4020   -0.8506 S   0  0  0  0  0  0  0  0  0  0  0  0
    3.2900    0.9104    1.1381 O   0  0  0  0  0  0  0  0  0  0  0  0
    3.9875    2.0654    0.6351 C   0  0  0  0  0  0  0  0  0  0  0  0
    4.8732    1.7461   -0.5516 C   0  0  0  0  0  0  0  0  0  0  0  0
    1.0896    1.3188   -0.7278 S   0  0  0  0  0  0  0  0  0  0  0  0
    0.4400    0.1369   -1.9340 C   0  0  0  0  0  0  0  0  0  0  0  0
   -0.5351   -1.1809   -1.1615 S   0  0  0  0  0  0  0  0  0  0  0  0
   -2.0200    0.0855   -0.3397 P   0  0  0  0  0  0  0  0  0  0  0  0
   -2.6071    1.5681   -1.4856 S   0  0  0  0  0  0  0  0  0  0  0  0
   -1.3976    0.4638    1.0619 O   0  0  0  0  0  0  0  0  0  0  0  0
   -1.6854    1.7113    1.7227 C   0  0  0  0  0  0  0  0  0  0  0  0
   -3.0941    1.7237    2.2767 C   0  0  0  0  0  0  0  0  0  0  0  0
   -3.1549   -0.9352    0.0929 O   0  0  0  0  0  0  0  0  0  0  0  0
   -4.0699   -1.5033   -0.8664 C   0  0  0  0  0  0  0  0  0  0  0  0
   -5.2630   -2.0466   -0.1065 C   0  0  0  0  0  0  0  0  0  0  0  0
   -0.1112   -3.3328    2.6222 H   0  0  0  0  0  0  0  0  0  0  0  0
   -0.0753   -1.6940    3.2987 H   0  0  0  0  0  0  0  0  0  0  0  0
   -0.8057   -1.9801    1.7158 H   0  0  0  0  0  0  0  0  0  0  0  0
    1.4309   -2.6064    0.7910 H   0  0  0  0  0  0  0  0  0  0  0  0
    2.1573   -2.3671    2.3983 H   0  0  0  0  0  0  0  0  0  0  0  0
    3.2467    2.8262    0.3728 H   0  0  0  0  0  0  0  0  0  0  0  0
    4.5743    2.4012    1.4920 H   0  0  0  0  0  0  0  0  0  0  0  0
    4.2668    1.4409   -1.4032 H   0  0  0  0  0  0  0  0  0  0  0  0
    5.4441    2.6284   -0.8225 H   0  0  0  0  0  0  0  0  0  0  0  0
    5.5561    0.9358   -0.3074 H   0  0  0  0  0  0  0  0  0  0  0  0
    1.2657   -0.3514   -2.4517 H   0  0  0  0  0  0  0  0  0  0  0  0
   -0.1874    0.7040   -2.6208 H   0  0  0  0  0  0  0  0  0  0  0  0
   -0.9323    1.7718    2.5096 H   0  0  0  0  0  0  0  0  0  0  0  0
   -1.5391    2.5281    1.0080 H   0  0  0  0  0  0  0  0  0  0  0  0
   -3.8091    1.6683    1.4564 H   0  0  0  0  0  0  0  0  0  0  0  0
   -3.2473    0.8728    2.9348 H   0  0  0  0  0  0  0  0  0  0  0  0
   -3.2585    2.6444    2.8274 H   0  0  0  0  0  0  0  0  0  0  0  0
   -4.3649   -0.7202   -1.5730 H   0  0  0  0  0  0  0  0  0  0  0  0
   -3.5469   -2.2953   -1.4092 H   0  0  0  0  0  0  0  0  0  0  0  0
   -5.9508   -2.5077   -0.8077 H   0  0  0  0  0  0  0  0  0  0  0  0
   -4.9348   -2.7874    0.6166 H   0  0  0  0  0  0  0  0  0  0  0  0
   -5.7716   -1.2429    0.4182 H   0  0  0  0  0  0  0  0  0  0  0  0
  1  2  1  0  0  0  0
  2  3  1  0  0  0  0
  3  4  2  0  0  0  0
  4  5  2  0  0  0  0
  4  6  2  0  0  0  0
  6  7  1  0  0  0  0
  7  8  1  0  0  0  0
  4  9  1  0  0  0  0
  9 10  1  0  0  0  0
 10 11  1  0  0  0  0
 11 12  1  0  0  0  0
 12 13  2  0  0  0  0
 12 14  2  0  0  0  0
 14 15  1  0  0  0  0
 15 16  1  0  0  0  0
 12 17  2  0  0  0  0
 17 18  1  0  0  0  0
 18 19  1  0  0  0  0
  1 20  1  0  0  0  0
  1 21  1  0  0  0  0
  1 22  1  0  0  0  0
  2 23  1  0  0  0  0
  2 24  1  0  0  0  0
  7 25  1  0  0  0  0
  7 26  1  0  0  0  0
  8 27  1  0  0  0  0
  8 28  1  0  0  0  0
  8 29  1  0  0  0  0
 10 30  1  0  0  0  0
 10 31  1  0  0  0  0
 15 32  1  0  0  0  0
 15 33  1  0  0  0  0
 16 34  1  0  0  0  0
 16 35  1  0  0  0  0
 16 36  1  0  0  0  0
 18 37  1  0  0  0  0
 18 38  1  0  0  0  0
 19 39  1  0  0  0  0
 19 40  1  0  0  0  0
 19 41  1  0  0  0  0
M  END
