 xtb: 6.7.1 (edcfbbe)
          04092505213D

 41 40  0     0  0            999 V2000
    4.2289   -2.0772    0.1919 C   0  0  0  0  0  0  0  0  0  0  0  0
    4.7039   -0.6526    0.3878 C   0  0  0  0  0  0  0  0  0  0  0  0
    3.6143    0.2590    0.6285 O   0  0  0  0  0  0  0  0  0  0  0  0
    2.5179    0.5847   -0.4718 P   0  0  0  0  0  0  0  0  0  0  0  0
    3.1472    0.7706   -2.3111 S   0  0  0  0  0  0  0  0  0  0  0  0
    1.8595    1.9141    0.0583 O   0  0  0  0  0  0  0  0  0  0  0  0
    1.4402    2.0946    1.4343 C   0  0  0  0  0  0  0  0  0  0  0  0
    2.4781    2.8821    2.2051 C   0  0  0  0  0  0  0  0  0  0  0  0
    1.0161   -0.9036   -0.1685 S   0  0  0  0  0  0  0  0  0  0  0  0
    0.1000   -0.4752   -1.6855 C   0  0  0  0  0  0  0  0  0  0  0  0
   -1.4627   -1.3699   -1.7809 S   0  0  0  0  0  0  0  0  0  0  0  0
   -2.4398   -0.3572   -0.1933 P   0  0  0  0  0  0  0  0  0  0  0  0
   -1.8979    1.4966    0.1610 S   0  0  0  0  0  0  0  0  0  0  0  0
   -2.3733   -1.3243    1.0645 O   0  0  0  0  0  0  0  0  0  0  0  0
   -1.4846   -1.1819    2.1873 C   0  0  0  0  0  0  0  0  0  0  0  0
   -2.2208   -1.6269    3.4356 C   0  0  0  0  0  0  0  0  0  0  0  0
   -3.9085   -0.5848   -0.7262 O   0  0  0  0  0  0  0  0  0  0  0  0
   -5.0305    0.2031   -0.2720 C   0  0  0  0  0  0  0  0  0  0  0  0
   -5.2931    0.0306    1.2094 C   0  0  0  0  0  0  0  0  0  0  0  0
    3.5858   -2.3797    1.0145 H   0  0  0  0  0  0  0  0  0  0  0  0
    3.6705   -2.1594   -0.7394 H   0  0  0  0  0  0  0  0  0  0  0  0
    5.0888   -2.7375    0.1438 H   0  0  0  0  0  0  0  0  0  0  0  0
    5.2541   -0.3056   -0.4918 H   0  0  0  0  0  0  0  0  0  0  0  0
    5.3249   -0.5540    1.2791 H   0  0  0  0  0  0  0  0  0  0  0  0
    0.4919    2.6325    1.3653 H   0  0  0  0  0  0  0  0  0  0  0  0
    1.2720    1.1118    1.8833 H   0  0  0  0  0  0  0  0  0  0  0  0
    2.6655    3.8311    1.7105 H   0  0  0  0  0  0  0  0  0  0  0  0
    2.1079    3.0674    3.2084 H   0  0  0  0  0  0  0  0  0  0  0  0
    3.4089    2.3238    2.2606 H   0  0  0  0  0  0  0  0  0  0  0  0
    0.6919   -0.7608   -2.5533 H   0  0  0  0  0  0  0  0  0  0  0  0
   -0.0922    0.6002   -1.6818 H   0  0  0  0  0  0  0  0  0  0  0  0
   -0.6072   -1.8055    1.9978 H   0  0  0  0  0  0  0  0  0  0  0  0
   -1.1736   -0.1338    2.2573 H   0  0  0  0  0  0  0  0  0  0  0  0
   -2.5756   -2.6456    3.3104 H   0  0  0  0  0  0  0  0  0  0  0  0
   -1.5413   -1.5847    4.2804 H   0  0  0  0  0  0  0  0  0  0  0  0
   -3.0711   -0.9786    3.6279 H   0  0  0  0  0  0  0  0  0  0  0  0
   -4.8322    1.2531   -0.5096 H   0  0  0  0  0  0  0  0  0  0  0  0
   -5.8615   -0.1620   -0.8769 H   0  0  0  0  0  0  0  0  0  0  0  0
   -4.4714    0.4597    1.7818 H   0  0  0  0  0  0  0  0  0  0  0  0
   -6.2121    0.5449    1.4732 H   0  0  0  0  0  0  0  0  0  0  0  0
   -5.3840   -1.0245    1.4536 H   0  0  0  0  0  0  0  0  0  0  0  0
  1  2  1  0  0  0  0
  2  3  1  0  0  0  0
  3  4  2  0  0  0  0
  4  5  2  0  0  0  0
  4  6  2  0  0  0  0
  6  7  1  0  0  0  0
  7  8  1  0  0  0  0
  4  9  1  0  0  0  0
  9 10  1  0  0  0  0
 10 11  1  0  0  0  0
 11 12  1  0  0  0  0
 12 13  2  0  0  0  0
 12 14  2  0  0  0  0
 14 15  1  0  0  0  0
 15 16  1  0  0  0  0
 12 17  2  0  0  0  0
 17 18  1  0  0  0  0
 18 19  1  0  0  0  0
  1 20  1  0  0  0  0
  1 21  1  0  0  0  0
  1 22  1  0  0  0  0
  2 23  1  0  0  0  0
  2 24  1  0  0  0  0
  7 25  1  0  0  0  0
  7 26  1  0  0  0  0
  8 27  1  0  0  0  0
  8 28  1  0  0  0  0
  8 29  1  0  0  0  0
 10 30  1  0  0  0  0
 10 31  1  0  0  0  0
 15 32  1  0  0  0  0
 15 33  1  0  0  0  0
 16 34  1  0  0  0  0
 16 35  1  0  0  0  0
 16 36  1  0  0  0  0
 18 37  1  0  0  0  0
 18 38  1  0  0  0  0
 19 39  1  0  0  0  0
 19 40  1  0  0  0  0
 19 41  1  0  0  0  0
M  END
