 xtb: 6.7.1 (edcfbbe)
          04092507313D

 38 37  0     0  0            999 V2000
    5.6116   -0.4526   -0.5931 C   0  0  0  0  0  0  0  0  0  0  0  0
    4.9289   -1.5263   -1.4241 C   0  0  0  0  0  0  0  0  0  0  0  0
    3.6733   -1.9162   -0.8326 O   0  0  0  0  0  0  0  0  0  0  0  0
    2.5889   -1.2396   -1.1512 C   0  0  0  0  0  0  0  0  0  0  0  0
    2.5586   -0.2988   -1.9126 O   0  0  0  0  0  0  0  0  0  0  0  0
    1.3657   -1.8282   -0.4710 C   0  0  0  0  0  0  0  0  0  0  0  0
    0.2656   -0.7841   -0.3647 C   0  0  0  0  0  0  0  0  0  0  0  0
    0.2087   -0.2226   -1.3078 H   0  0  0  0  0  0  0  0  0  0  0  0
    0.4849    0.2274    0.7359 C   0  0  0  0  0  0  0  0  0  0  0  0
   -0.4534    0.7218    1.3381 O   0  0  0  0  0  0  0  0  0  0  0  0
    1.7321    0.5134    0.9539 O   0  0  0  0  0  0  0  0  0  0  0  0
    2.0265    1.5216    1.9518 C   0  0  0  0  0  0  0  0  0  0  0  0
    3.5069    1.8330    1.8847 C   0  0  0  0  0  0  0  0  0  0  0  0
   -1.3734   -1.5417   -0.0626 S   0  0  0  0  0  0  0  0  0  0  0  0
   -2.5184    0.2278   -0.0098 P   0  0  0  0  0  0  0  0  0  0  0  0
   -1.9757    1.8516   -0.9841 S   0  0  0  0  0  0  0  0  0  0  0  0
   -3.7455   -0.5148   -0.7331 O   0  0  0  0  0  0  0  0  0  0  0  0
   -4.9581    0.1797   -1.0389 C   0  0  0  0  0  0  0  0  0  0  0  0
   -3.2019    0.4632    1.4152 O   0  0  0  0  0  0  0  0  0  0  0  0
   -2.8944    1.5039    2.3426 C   0  0  0  0  0  0  0  0  0  0  0  0
    6.5782   -0.2218   -1.0283 H   0  0  0  0  0  0  0  0  0  0  0  0
    5.0043    0.4489   -0.5823 H   0  0  0  0  0  0  0  0  0  0  0  0
    5.7516   -0.8011    0.4261 H   0  0  0  0  0  0  0  0  0  0  0  0
    5.5150   -2.4451   -1.4482 H   0  0  0  0  0  0  0  0  0  0  0  0
    4.7395   -1.1671   -2.4395 H   0  0  0  0  0  0  0  0  0  0  0  0
    1.6452   -2.2269    0.5025 H   0  0  0  0  0  0  0  0  0  0  0  0
    1.0084   -2.6551   -1.0883 H   0  0  0  0  0  0  0  0  0  0  0  0
    1.4121    2.4012    1.7394 H   0  0  0  0  0  0  0  0  0  0  0  0
    1.7390    1.1202    2.9277 H   0  0  0  0  0  0  0  0  0  0  0  0
    4.0874    0.9359    2.0760 H   0  0  0  0  0  0  0  0  0  0  0  0
    3.7625    2.2175    0.9016 H   0  0  0  0  0  0  0  0  0  0  0  0
    3.7468    2.5819    2.6320 H   0  0  0  0  0  0  0  0  0  0  0  0
   -5.5011   -0.4660   -1.7243 H   0  0  0  0  0  0  0  0  0  0  0  0
   -4.7318    1.1362   -1.5151 H   0  0  0  0  0  0  0  0  0  0  0  0
   -5.5341    0.3459   -0.1291 H   0  0  0  0  0  0  0  0  0  0  0  0
   -2.1834    1.1349    3.0782 H   0  0  0  0  0  0  0  0  0  0  0  0
   -3.8380    1.7720    2.8130 H   0  0  0  0  0  0  0  0  0  0  0  0
   -2.4698    2.3612    1.8184 H   0  0  0  0  0  0  0  0  0  0  0  0
  1  2  1  0  0  0  0
  2  3  1  0  0  0  0
  3  4  1  0  0  0  0
  4  5  2  0  0  0  0
  4  6  1  0  0  0  0
  6  7  1  0  0  0  0
  7  8  1  0  0  0  0
  7  9  1  0  0  0  0
  9 10  2  0  0  0  0
  9 11  4  0  0  0  0
 11 12  1  0  0  0  0
 12 13  1  0  0  0  0
  7 14  1  0  0  0  0
 14 15  1  0  0  0  0
 15 16  2  0  0  0  0
 15 17  1  0  0  0  0
 17 18  1  0  0  0  0
 15 19  2  0  0  0  0
 19 20  1  0  0  0  0
  1 21  1  0  0  0  0
  1 22  1  0  0  0  0
  1 23  1  0  0  0  0
  2 24  1  0  0  0  0
  2 25  1  0  0  0  0
  6 26  1  0  0  0  0
  6 27  1  0  0  0  0
 12 28  1  0  0  0  0
 12 29  1  0  0  0  0
 13 30  1  0  0  0  0
 13 31  1  0  0  0  0
 13 32  1  0  0  0  0
 18 33  1  0  0  0  0
 18 34  1  0  0  0  0
 18 35  1  0  0  0  0
 20 36  1  0  0  0  0
 20 37  1  0  0  0  0
 20 38  1  0  0  0  0
M  END
