 xtb: 6.7.1 (edcfbbe)
          04092507313D

 38 37  0     0  0            999 V2000
    4.2487    0.3605   -2.3445 C   0  0  0  0  0  0  0  0  0  0  0  0
    4.1947   -1.1554   -2.2456 C   0  0  0  0  0  0  0  0  0  0  0  0
    2.8586   -1.5792   -1.9128 O   0  0  0  0  0  0  0  0  0  0  0  0
    2.5901   -1.9384   -0.6757 C   0  0  0  0  0  0  0  0  0  0  0  0
    3.4009   -2.0317    0.2189 O   0  0  0  0  0  0  0  0  0  0  0  0
    1.1108   -2.2442   -0.5022 C   0  0  0  0  0  0  0  0  0  0  0  0
    0.3232   -0.9287   -0.5297 C   0  0  0  0  0  0  0  0  0  0  0  0
    0.3904   -0.4687   -1.5190 H   0  0  0  0  0  0  0  0  0  0  0  0
    0.9468    0.0156    0.4826 C   0  0  0  0  0  0  0  0  0  0  0  0
    1.9786    0.6016    0.2482 O   0  0  0  0  0  0  0  0  0  0  0  0
    0.3113    0.0290    1.6355 O   0  0  0  0  0  0  0  0  0  0  0  0
    0.9057    0.7632    2.7263 C   0  0  0  0  0  0  0  0  0  0  0  0
    0.6182    2.2519    2.6394 C   0  0  0  0  0  0  0  0  0  0  0  0
   -1.4232   -1.2877   -0.1563 S   0  0  0  0  0  0  0  0  0  0  0  0
   -2.0958    0.7092    0.1019 P   0  0  0  0  0  0  0  0  0  0  0  0
   -0.9923    2.0954   -0.7332 S   0  0  0  0  0  0  0  0  0  0  0  0
   -3.5999    0.6345   -0.4380 O   0  0  0  0  0  0  0  0  0  0  0  0
   -3.8813    0.4515   -1.8304 C   0  0  0  0  0  0  0  0  0  0  0  0
   -2.3602    0.9603    1.6373 O   0  0  0  0  0  0  0  0  0  0  0  0
   -3.1813    0.0726    2.4241 C   0  0  0  0  0  0  0  0  0  0  0  0
    5.2658    0.6738   -2.5542 H   0  0  0  0  0  0  0  0  0  0  0  0
    3.5926    0.7103   -3.1365 H   0  0  0  0  0  0  0  0  0  0  0  0
    3.9224    0.8032   -1.4053 H   0  0  0  0  0  0  0  0  0  0  0  0
    4.8768   -1.5236   -1.4742 H   0  0  0  0  0  0  0  0  0  0  0  0
    4.4145   -1.6264   -3.2049 H   0  0  0  0  0  0  0  0  0  0  0  0
    0.9662   -2.7468    0.4547 H   0  0  0  0  0  0  0  0  0  0  0  0
    0.7700   -2.8820   -1.3171 H   0  0  0  0  0  0  0  0  0  0  0  0
    0.4571    0.3201    3.6154 H   0  0  0  0  0  0  0  0  0  0  0  0
    1.9835    0.5767    2.7046 H   0  0  0  0  0  0  0  0  0  0  0  0
    1.0687    2.6706    1.7415 H   0  0  0  0  0  0  0  0  0  0  0  0
   -0.4539    2.4297    2.6026 H   0  0  0  0  0  0  0  0  0  0  0  0
    1.0375    2.7466    3.5090 H   0  0  0  0  0  0  0  0  0  0  0  0
   -3.3002    1.1566   -2.4267 H   0  0  0  0  0  0  0  0  0  0  0  0
   -4.9448    0.6470   -1.9418 H   0  0  0  0  0  0  0  0  0  0  0  0
   -3.6448   -0.5709   -2.1242 H   0  0  0  0  0  0  0  0  0  0  0  0
   -3.1071    0.4439    3.4428 H   0  0  0  0  0  0  0  0  0  0  0  0
   -2.7984   -0.9455    2.3540 H   0  0  0  0  0  0  0  0  0  0  0  0
   -4.2098    0.1115    2.0715 H   0  0  0  0  0  0  0  0  0  0  0  0
  1  2  1  0  0  0  0
  2  3  1  0  0  0  0
  3  4  1  0  0  0  0
  4  5  2  0  0  0  0
  4  6  1  0  0  0  0
  6  7  1  0  0  0  0
  7  8  1  0  0  0  0
  7  9  1  0  0  0  0
  9 10  2  0  0  0  0
  9 11  1  0  0  0  0
 11 12  1  0  0  0  0
 12 13  1  0  0  0  0
  7 14  1  0  0  0  0
 14 15  1  0  0  0  0
 15 16  2  0  0  0  0
 15 17  1  0  0  0  0
 17 18  1  0  0  0  0
 15 19  2  0  0  0  0
 19 20  1  0  0  0  0
  1 21  1  0  0  0  0
  1 22  1  0  0  0  0
  1 23  1  0  0  0  0
  2 24  1  0  0  0  0
  2 25  1  0  0  0  0
  6 26  1  0  0  0  0
  6 27  1  0  0  0  0
 12 28  1  0  0  0  0
 12 29  1  0  0  0  0
 13 30  1  0  0  0  0
 13 31  1  0  0  0  0
 13 32  1  0  0  0  0
 18 33  1  0  0  0  0
 18 34  1  0  0  0  0
 18 35  1  0  0  0  0
 20 36  1  0  0  0  0
 20 37  1  0  0  0  0
 20 38  1  0  0  0  0
M  END
