 xtb: 6.7.1 (edcfbbe)
          04092505213D

 41 40  0     0  0            999 V2000
    5.4701   -1.2704   -1.2621 C   0  0  0  0  0  0  0  0  0  0  0  0
    4.0612   -1.7253   -1.5910 C   0  0  0  0  0  0  0  0  0  0  0  0
    3.2057   -1.6189   -0.4350 O   0  0  0  0  0  0  0  0  0  0  0  0
    2.2922   -0.3469   -0.1590 P   0  0  0  0  0  0  0  0  0  0  0  0
    3.1950    1.3985   -0.1610 S   0  0  0  0  0  0  0  0  0  0  0  0
    1.6099   -0.7696    1.2023 O   0  0  0  0  0  0  0  0  0  0  0  0
    2.1020   -0.3584    2.5006 C   0  0  0  0  0  0  0  0  0  0  0  0
    0.9668    0.2555    3.2947 C   0  0  0  0  0  0  0  0  0  0  0  0
    0.7169   -0.5864   -1.5430 S   0  0  0  0  0  0  0  0  0  0  0  0
    0.0504    1.0955   -1.3928 C   0  0  0  0  0  0  0  0  0  0  0  0
   -0.7620    1.3933    0.1891 S   0  0  0  0  0  0  0  0  0  0  0  0
   -2.6299    0.4192   -0.2024 P   0  0  0  0  0  0  0  0  0  0  0  0
   -2.9917    0.1003   -2.1011 S   0  0  0  0  0  0  0  0  0  0  0  0
   -3.7541    1.3393    0.4001 O   0  0  0  0  0  0  0  0  0  0  0  0
   -4.0615    1.5073    1.8064 C   0  0  0  0  0  0  0  0  0  0  0  0
   -2.9008    2.0786    2.5919 C   0  0  0  0  0  0  0  0  0  0  0  0
   -2.6817   -0.8166    0.8026 O   0  0  0  0  0  0  0  0  0  0  0  0
   -1.7526   -1.9107    0.8512 C   0  0  0  0  0  0  0  0  0  0  0  0
   -1.9221   -2.8657   -0.3131 C   0  0  0  0  0  0  0  0  0  0  0  0
    5.4738   -0.2152   -0.9977 H   0  0  0  0  0  0  0  0  0  0  0  0
    5.8607   -1.8428   -0.4255 H   0  0  0  0  0  0  0  0  0  0  0  0
    6.1059   -1.4200   -2.1288 H   0  0  0  0  0  0  0  0  0  0  0  0
    4.0359   -2.7841   -1.8554 H   0  0  0  0  0  0  0  0  0  0  0  0
    3.6387   -1.1365   -2.4101 H   0  0  0  0  0  0  0  0  0  0  0  0
    2.4891   -1.2591    2.9801 H   0  0  0  0  0  0  0  0  0  0  0  0
    2.9152    0.3608    2.3603 H   0  0  0  0  0  0  0  0  0  0  0  0
    0.6079    1.1539    2.7978 H   0  0  0  0  0  0  0  0  0  0  0  0
    0.1477   -0.4524    3.3857 H   0  0  0  0  0  0  0  0  0  0  0  0
    1.3277    0.5153    4.2845 H   0  0  0  0  0  0  0  0  0  0  0  0
   -0.6716    1.2151   -2.2012 H   0  0  0  0  0  0  0  0  0  0  0  0
    0.8669    1.8136   -1.4682 H   0  0  0  0  0  0  0  0  0  0  0  0
   -4.9126    2.1897    1.7924 H   0  0  0  0  0  0  0  0  0  0  0  0
   -4.3676    0.5386    2.2052 H   0  0  0  0  0  0  0  0  0  0  0  0
   -2.5632    3.0118    2.1481 H   0  0  0  0  0  0  0  0  0  0  0  0
   -3.2190    2.2626    3.6133 H   0  0  0  0  0  0  0  0  0  0  0  0
   -2.0688    1.3767    2.6026 H   0  0  0  0  0  0  0  0  0  0  0  0
   -0.7326   -1.5156    0.8850 H   0  0  0  0  0  0  0  0  0  0  0  0
   -1.9839   -2.4020    1.7987 H   0  0  0  0  0  0  0  0  0  0  0  0
   -1.2611   -3.7155   -0.1763 H   0  0  0  0  0  0  0  0  0  0  0  0
   -2.9508   -3.2123   -0.3686 H   0  0  0  0  0  0  0  0  0  0  0  0
   -1.6709   -2.3741   -1.2511 H   0  0  0  0  0  0  0  0  0  0  0  0
  1  2  1  0  0  0  0
  2  3  1  0  0  0  0
  3  4  2  0  0  0  0
  4  5  2  0  0  0  0
  4  6  2  0  0  0  0
  6  7  1  0  0  0  0
  7  8  1  0  0  0  0
  4  9  1  0  0  0  0
  9 10  1  0  0  0  0
 10 11  1  0  0  0  0
 11 12  1  0  0  0  0
 12 13  2  0  0  0  0
 12 14  2  0  0  0  0
 14 15  1  0  0  0  0
 15 16  1  0  0  0  0
 12 17  2  0  0  0  0
 17 18  1  0  0  0  0
 18 19  1  0  0  0  0
  1 20  1  0  0  0  0
  1 21  1  0  0  0  0
  1 22  1  0  0  0  0
  2 23  1  0  0  0  0
  2 24  1  0  0  0  0
  7 25  1  0  0  0  0
  7 26  1  0  0  0  0
  8 27  1  0  0  0  0
  8 28  1  0  0  0  0
  8 29  1  0  0  0  0
 10 30  1  0  0  0  0
 10 31  1  0  0  0  0
 15 32  1  0  0  0  0
 15 33  1  0  0  0  0
 16 34  1  0  0  0  0
 16 35  1  0  0  0  0
 16 36  1  0  0  0  0
 18 37  1  0  0  0  0
 18 38  1  0  0  0  0
 19 39  1  0  0  0  0
 19 40  1  0  0  0  0
 19 41  1  0  0  0  0
M  END
