 xtb: 6.7.1 (edcfbbe)
          04092505203D

 41 40  0     0  0            999 V2000
    4.3340    0.6371   -2.1260 C   0  0  0  0  0  0  0  0  0  0  0  0
    4.6205   -0.0177   -0.7914 C   0  0  0  0  0  0  0  0  0  0  0  0
    3.6685    0.3479    0.2257 O   0  0  0  0  0  0  0  0  0  0  0  0
    2.0927    0.2094    0.0987 P   0  0  0  0  0  0  0  0  0  0  0  0
    1.1172    1.5752   -0.9178 S   0  0  0  0  0  0  0  0  0  0  0  0
    1.6367    0.2650    1.6074 O   0  0  0  0  0  0  0  0  0  0  0  0
    2.1766   -0.6018    2.6395 C   0  0  0  0  0  0  0  0  0  0  0  0
    3.2093    0.1382    3.4639 C   0  0  0  0  0  0  0  0  0  0  0  0
    1.8521   -1.8064   -0.5463 S   0  0  0  0  0  0  0  0  0  0  0  0
    0.1091   -1.7164   -0.9966 C   0  0  0  0  0  0  0  0  0  0  0  0
   -0.9554   -1.2741    0.4131 S   0  0  0  0  0  0  0  0  0  0  0  0
   -2.1425    0.2712   -0.4492 P   0  0  0  0  0  0  0  0  0  0  0  0
   -2.0248    0.4429   -2.3949 S   0  0  0  0  0  0  0  0  0  0  0  0
   -1.8899    1.6201    0.3134 O   0  0  0  0  0  0  0  0  0  0  0  0
   -1.5248    1.7900    1.7039 C   0  0  0  0  0  0  0  0  0  0  0  0
   -2.4442    1.0524    2.6521 C   0  0  0  0  0  0  0  0  0  0  0  0
   -3.6028   -0.1068    0.0608 O   0  0  0  0  0  0  0  0  0  0  0  0
   -4.3238   -1.2220   -0.4958 C   0  0  0  0  0  0  0  0  0  0  0  0
   -5.7901   -1.0482   -0.1554 C   0  0  0  0  0  0  0  0  0  0  0  0
    5.1221    0.3873   -2.8290 H   0  0  0  0  0  0  0  0  0  0  0  0
    3.3817    0.2860   -2.5219 H   0  0  0  0  0  0  0  0  0  0  0  0
    4.2782    1.7177   -2.0154 H   0  0  0  0  0  0  0  0  0  0  0  0
    5.5753    0.3164   -0.3818 H   0  0  0  0  0  0  0  0  0  0  0  0
    4.6154   -1.1070   -0.8860 H   0  0  0  0  0  0  0  0  0  0  0  0
    1.3107   -0.8869    3.2397 H   0  0  0  0  0  0  0  0  0  0  0  0
    2.6049   -1.4904    2.1683 H   0  0  0  0  0  0  0  0  0  0  0  0
    4.0479    0.4338    2.8390 H   0  0  0  0  0  0  0  0  0  0  0  0
    2.7697    1.0298    3.9020 H   0  0  0  0  0  0  0  0  0  0  0  0
    3.5634   -0.5139    4.2560 H   0  0  0  0  0  0  0  0  0  0  0  0
   -0.1636   -2.7107   -1.3417 H   0  0  0  0  0  0  0  0  0  0  0  0
   -0.0421   -0.9712   -1.7833 H   0  0  0  0  0  0  0  0  0  0  0  0
   -0.4863    1.4656    1.8191 H   0  0  0  0  0  0  0  0  0  0  0  0
   -1.5816    2.8713    1.8404 H   0  0  0  0  0  0  0  0  0  0  0  0
   -2.3518   -0.0233    2.5093 H   0  0  0  0  0  0  0  0  0  0  0  0
   -2.1686    1.2993    3.6728 H   0  0  0  0  0  0  0  0  0  0  0  0
   -3.4759    1.3445    2.4745 H   0  0  0  0  0  0  0  0  0  0  0  0
   -4.1622   -1.2363   -1.5792 H   0  0  0  0  0  0  0  0  0  0  0  0
   -3.9188   -2.1397   -0.0601 H   0  0  0  0  0  0  0  0  0  0  0  0
   -6.3513   -1.8817   -0.5646 H   0  0  0  0  0  0  0  0  0  0  0  0
   -5.9213   -1.0186    0.9222 H   0  0  0  0  0  0  0  0  0  0  0  0
   -6.1627   -0.1210   -0.5818 H   0  0  0  0  0  0  0  0  0  0  0  0
  1  2  1  0  0  0  0
  2  3  1  0  0  0  0
  3  4  2  0  0  0  0
  4  5  2  0  0  0  0
  4  6  2  0  0  0  0
  6  7  1  0  0  0  0
  7  8  1  0  0  0  0
  4  9  1  0  0  0  0
  9 10  1  0  0  0  0
 10 11  1  0  0  0  0
 11 12  1  0  0  0  0
 12 13  2  0  0  0  0
 12 14  2  0  0  0  0
 14 15  1  0  0  0  0
 15 16  1  0  0  0  0
 12 17  2  0  0  0  0
 17 18  1  0  0  0  0
 18 19  1  0  0  0  0
  1 20  1  0  0  0  0
  1 21  1  0  0  0  0
  1 22  1  0  0  0  0
  2 23  1  0  0  0  0
  2 24  1  0  0  0  0
  7 25  1  0  0  0  0
  7 26  1  0  0  0  0
  8 27  1  0  0  0  0
  8 28  1  0  0  0  0
  8 29  1  0  0  0  0
 10 30  1  0  0  0  0
 10 31  1  0  0  0  0
 15 32  1  0  0  0  0
 15 33  1  0  0  0  0
 16 34  1  0  0  0  0
 16 35  1  0  0  0  0
 16 36  1  0  0  0  0
 18 37  1  0  0  0  0
 18 38  1  0  0  0  0
 19 39  1  0  0  0  0
 19 40  1  0  0  0  0
 19 41  1  0  0  0  0
M  END
