 xtb: 6.7.1 (edcfbbe)
          04092505203D

 41 40  0     0  0            999 V2000
    4.3999   -1.6312   -0.8900 C   0  0  0  0  0  0  0  0  0  0  0  0
    4.5808   -0.1517   -0.6198 C   0  0  0  0  0  0  0  0  0  0  0  0
    3.5052    0.4070    0.1556 O   0  0  0  0  0  0  0  0  0  0  0  0
    2.0136    0.5142   -0.3950 P   0  0  0  0  0  0  0  0  0  0  0  0
    1.8736    0.9690   -2.2901 S   0  0  0  0  0  0  0  0  0  0  0  0
    1.3996    1.6058    0.5643 O   0  0  0  0  0  0  0  0  0  0  0  0
    1.4957    1.5415    2.0079 C   0  0  0  0  0  0  0  0  0  0  0  0
    2.6524    2.3779    2.5142 C   0  0  0  0  0  0  0  0  0  0  0  0
    1.1718   -1.3464    0.2045 S   0  0  0  0  0  0  0  0  0  0  0  0
    0.0071   -1.6360   -1.1657 C   0  0  0  0  0  0  0  0  0  0  0  0
   -1.6917   -1.8759   -0.6102 S   0  0  0  0  0  0  0  0  0  0  0  0
   -2.0323    0.0783    0.1572 P   0  0  0  0  0  0  0  0  0  0  0  0
   -1.4686    1.5353   -1.0290 S   0  0  0  0  0  0  0  0  0  0  0  0
   -1.3146    0.1696    1.5615 O   0  0  0  0  0  0  0  0  0  0  0  0
   -1.7893   -0.4183    2.8019 C   0  0  0  0  0  0  0  0  0  0  0  0
   -1.7491   -1.9320    2.7852 C   0  0  0  0  0  0  0  0  0  0  0  0
   -3.5661    0.0706    0.5675 O   0  0  0  0  0  0  0  0  0  0  0  0
   -4.6203    0.3971   -0.3559 C   0  0  0  0  0  0  0  0  0  0  0  0
   -4.7454   -0.6191   -1.4720 C   0  0  0  0  0  0  0  0  0  0  0  0
    4.2067   -2.1667    0.0360 H   0  0  0  0  0  0  0  0  0  0  0  0
    3.5637   -1.7845   -1.5705 H   0  0  0  0  0  0  0  0  0  0  0  0
    5.3018   -2.0202   -1.3516 H   0  0  0  0  0  0  0  0  0  0  0  0
    4.6483    0.4040   -1.5601 H   0  0  0  0  0  0  0  0  0  0  0  0
    5.4649    0.0403   -0.0102 H   0  0  0  0  0  0  0  0  0  0  0  0
    0.5374    1.9325    2.3560 H   0  0  0  0  0  0  0  0  0  0  0  0
    1.5986    0.4943    2.3073 H   0  0  0  0  0  0  0  0  0  0  0  0
    2.5560    3.3989    2.1546 H   0  0  0  0  0  0  0  0  0  0  0  0
    2.6400    2.3764    3.5997 H   0  0  0  0  0  0  0  0  0  0  0  0
    3.5963    1.9697    2.1637 H   0  0  0  0  0  0  0  0  0  0  0  0
    0.2919   -2.5595   -1.6634 H   0  0  0  0  0  0  0  0  0  0  0  0
    0.0639   -0.7853   -1.8509 H   0  0  0  0  0  0  0  0  0  0  0  0
   -1.1025   -0.0098    3.5452 H   0  0  0  0  0  0  0  0  0  0  0  0
   -2.8006   -0.0526    2.9864 H   0  0  0  0  0  0  0  0  0  0  0  0
   -1.9612   -2.2975    3.7852 H   0  0  0  0  0  0  0  0  0  0  0  0
   -2.4937   -2.3275    2.0986 H   0  0  0  0  0  0  0  0  0  0  0  0
   -0.7659   -2.2816    2.4779 H   0  0  0  0  0  0  0  0  0  0  0  0
   -5.5131    0.4197    0.2709 H   0  0  0  0  0  0  0  0  0  0  0  0
   -4.4244    1.3935   -0.7636 H   0  0  0  0  0  0  0  0  0  0  0  0
   -5.6359   -0.4028   -2.0536 H   0  0  0  0  0  0  0  0  0  0  0  0
   -3.8768   -0.5622   -2.1263 H   0  0  0  0  0  0  0  0  0  0  0  0
   -4.8137   -1.6247   -1.0651 H   0  0  0  0  0  0  0  0  0  0  0  0
  1  2  1  0  0  0  0
  2  3  1  0  0  0  0
  3  4  2  0  0  0  0
  4  5  2  0  0  0  0
  4  6  2  0  0  0  0
  6  7  1  0  0  0  0
  7  8  1  0  0  0  0
  4  9  1  0  0  0  0
  9 10  1  0  0  0  0
 10 11  1  0  0  0  0
 11 12  1  0  0  0  0
 12 13  2  0  0  0  0
 12 14  2  0  0  0  0
 14 15  1  0  0  0  0
 15 16  1  0  0  0  0
 12 17  2  0  0  0  0
 17 18  1  0  0  0  0
 18 19  1  0  0  0  0
  1 20  1  0  0  0  0
  1 21  1  0  0  0  0
  1 22  1  0  0  0  0
  2 23  1  0  0  0  0
  2 24  1  0  0  0  0
  7 25  1  0  0  0  0
  7 26  1  0  0  0  0
  8 27  1  0  0  0  0
  8 28  1  0  0  0  0
  8 29  1  0  0  0  0
 10 30  1  0  0  0  0
 10 31  1  0  0  0  0
 15 32  1  0  0  0  0
 15 33  1  0  0  0  0
 16 34  1  0  0  0  0
 16 35  1  0  0  0  0
 16 36  1  0  0  0  0
 18 37  1  0  0  0  0
 18 38  1  0  0  0  0
 19 39  1  0  0  0  0
 19 40  1  0  0  0  0
 19 41  1  0  0  0  0
M  END
