 xtb: 6.7.1 (edcfbbe)
          04092505213D

 41 40  0     0  0            999 V2000
    5.5614    0.0074   -1.5505 C   0  0  0  0  0  0  0  0  0  0  0  0
    4.3967    0.6861   -0.8587 C   0  0  0  0  0  0  0  0  0  0  0  0
    3.2807   -0.2277   -0.8644 O   0  0  0  0  0  0  0  0  0  0  0  0
    2.0789   -0.0818    0.1614 P   0  0  0  0  0  0  0  0  0  0  0  0
    2.6087    0.1894    2.0317 S   0  0  0  0  0  0  0  0  0  0  0  0
    1.2159   -1.3646   -0.1542 O   0  0  0  0  0  0  0  0  0  0  0  0
    1.3490   -2.5943    0.5882 C   0  0  0  0  0  0  0  0  0  0  0  0
    2.7033   -3.2344    0.3740 C   0  0  0  0  0  0  0  0  0  0  0  0
    0.8995    1.4414   -0.6980 S   0  0  0  0  0  0  0  0  0  0  0  0
   -0.0812    1.8018    0.7875 C   0  0  0  0  0  0  0  0  0  0  0  0
   -1.0950    0.4084    1.3525 S   0  0  0  0  0  0  0  0  0  0  0  0
   -2.2585    0.0684   -0.4217 P   0  0  0  0  0  0  0  0  0  0  0  0
   -1.5062   -0.9860   -1.8855 S   0  0  0  0  0  0  0  0  0  0  0  0
   -2.6955    1.5129   -0.8726 O   0  0  0  0  0  0  0  0  0  0  0  0
   -3.5573    2.3618   -0.0640 C   0  0  0  0  0  0  0  0  0  0  0  0
   -3.4331    3.7771   -0.5886 C   0  0  0  0  0  0  0  0  0  0  0  0
   -3.6082   -0.5259    0.1799 O   0  0  0  0  0  0  0  0  0  0  0  0
   -3.7930   -1.9351    0.3948 C   0  0  0  0  0  0  0  0  0  0  0  0
   -2.9018   -2.4552    1.5039 C   0  0  0  0  0  0  0  0  0  0  0  0
    6.3996    0.6951   -1.5919 H   0  0  0  0  0  0  0  0  0  0  0  0
    5.8554   -0.8843   -1.0042 H   0  0  0  0  0  0  0  0  0  0  0  0
    5.2768   -0.2762   -2.5597 H   0  0  0  0  0  0  0  0  0  0  0  0
    4.0940    1.5951   -1.3855 H   0  0  0  0  0  0  0  0  0  0  0  0
    4.6366    0.9366    0.1804 H   0  0  0  0  0  0  0  0  0  0  0  0
    1.1824   -2.3764    1.6486 H   0  0  0  0  0  0  0  0  0  0  0  0
    0.5399   -3.2157    0.2002 H   0  0  0  0  0  0  0  0  0  0  0  0
    3.4818   -2.5939    0.7875 H   0  0  0  0  0  0  0  0  0  0  0  0
    2.7310   -4.1960    0.8768 H   0  0  0  0  0  0  0  0  0  0  0  0
    2.8870   -3.3723   -0.6884 H   0  0  0  0  0  0  0  0  0  0  0  0
   -0.7070    2.6552    0.5410 H   0  0  0  0  0  0  0  0  0  0  0  0
    0.5891    2.0297    1.6172 H   0  0  0  0  0  0  0  0  0  0  0  0
   -4.5768    1.9860   -0.1642 H   0  0  0  0  0  0  0  0  0  0  0  0
   -3.2511    2.2834    0.9829 H   0  0  0  0  0  0  0  0  0  0  0  0
   -3.7247    3.8111   -1.6343 H   0  0  0  0  0  0  0  0  0  0  0  0
   -4.0834    4.4273   -0.0123 H   0  0  0  0  0  0  0  0  0  0  0  0
   -2.4087    4.1309   -0.5058 H   0  0  0  0  0  0  0  0  0  0  0  0
   -4.8501   -2.0258    0.6479 H   0  0  0  0  0  0  0  0  0  0  0  0
   -3.5860   -2.4576   -0.5447 H   0  0  0  0  0  0  0  0  0  0  0  0
   -3.0550   -1.8826    2.4152 H   0  0  0  0  0  0  0  0  0  0  0  0
   -3.1259   -3.5005    1.6900 H   0  0  0  0  0  0  0  0  0  0  0  0
   -1.8568   -2.3645    1.2076 H   0  0  0  0  0  0  0  0  0  0  0  0
  1  2  1  0  0  0  0
  2  3  1  0  0  0  0
  3  4  2  0  0  0  0
  4  5  2  0  0  0  0
  4  6  2  0  0  0  0
  6  7  1  0  0  0  0
  7  8  1  0  0  0  0
  4  9  1  0  0  0  0
  9 10  1  0  0  0  0
 10 11  1  0  0  0  0
 11 12  1  0  0  0  0
 12 13  2  0  0  0  0
 12 14  2  0  0  0  0
 14 15  1  0  0  0  0
 15 16  1  0  0  0  0
 12 17  2  0  0  0  0
 17 18  1  0  0  0  0
 18 19  1  0  0  0  0
  1 20  1  0  0  0  0
  1 21  1  0  0  0  0
  1 22  1  0  0  0  0
  2 23  1  0  0  0  0
  2 24  1  0  0  0  0
  7 25  1  0  0  0  0
  7 26  1  0  0  0  0
  8 27  1  0  0  0  0
  8 28  1  0  0  0  0
  8 29  1  0  0  0  0
 10 30  1  0  0  0  0
 10 31  1  0  0  0  0
 15 32  1  0  0  0  0
 15 33  1  0  0  0  0
 16 34  1  0  0  0  0
 16 35  1  0  0  0  0
 16 36  1  0  0  0  0
 18 37  1  0  0  0  0
 18 38  1  0  0  0  0
 19 39  1  0  0  0  0
 19 40  1  0  0  0  0
 19 41  1  0  0  0  0
M  END
