 xtb: 6.7.1 (edcfbbe)
          04092505203D

 41 40  0     0  0            999 V2000
    3.0195    0.4843   -2.6172 C   0  0  0  0  0  0  0  0  0  0  0  0
    2.3065   -0.8306   -2.3834 C   0  0  0  0  0  0  0  0  0  0  0  0
    1.4313   -0.7794   -1.2323 O   0  0  0  0  0  0  0  0  0  0  0  0
    1.9369   -0.5051    0.2436 P   0  0  0  0  0  0  0  0  0  0  0  0
    2.3716    1.3215    0.8254 S   0  0  0  0  0  0  0  0  0  0  0  0
    3.1496   -1.5334    0.3207 O   0  0  0  0  0  0  0  0  0  0  0  0
    4.0368   -1.5852    1.4558 C   0  0  0  0  0  0  0  0  0  0  0  0
    5.3243   -0.8414    1.1582 C   0  0  0  0  0  0  0  0  0  0  0  0
    0.4298   -1.4550    1.3852 S   0  0  0  0  0  0  0  0  0  0  0  0
   -0.3371   -0.0189    2.2037 C   0  0  0  0  0  0  0  0  0  0  0  0
   -2.1203    0.1067    1.9147 S   0  0  0  0  0  0  0  0  0  0  0  0
   -2.1235    0.3847   -0.1704 P   0  0  0  0  0  0  0  0  0  0  0  0
   -0.7577    1.5480   -0.9746 S   0  0  0  0  0  0  0  0  0  0  0  0
   -3.6198    0.8166   -0.4862 O   0  0  0  0  0  0  0  0  0  0  0  0
   -4.0429    2.1904   -0.5100 C   0  0  0  0  0  0  0  0  0  0  0  0
   -4.0101    2.8226    0.8664 C   0  0  0  0  0  0  0  0  0  0  0  0
   -2.1181   -1.1308   -0.6302 O   0  0  0  0  0  0  0  0  0  0  0  0
   -1.7937   -1.5430   -1.9720 C   0  0  0  0  0  0  0  0  0  0  0  0
   -2.8298   -1.0814   -2.9749 C   0  0  0  0  0  0  0  0  0  0  0  0
    3.7066    0.6905   -1.7976 H   0  0  0  0  0  0  0  0  0  0  0  0
    3.5773    0.4352   -3.5468 H   0  0  0  0  0  0  0  0  0  0  0  0
    2.2967    1.2967   -2.6706 H   0  0  0  0  0  0  0  0  0  0  0  0
    3.0171   -1.6464   -2.2356 H   0  0  0  0  0  0  0  0  0  0  0  0
    1.6309   -1.0683   -3.2072 H   0  0  0  0  0  0  0  0  0  0  0  0
    3.5345   -1.1580    2.3278 H   0  0  0  0  0  0  0  0  0  0  0  0
    4.2172   -2.6486    1.6217 H   0  0  0  0  0  0  0  0  0  0  0  0
    6.0029   -0.9529    1.9975 H   0  0  0  0  0  0  0  0  0  0  0  0
    5.7909   -1.2414    0.2624 H   0  0  0  0  0  0  0  0  0  0  0  0
    5.1178    0.2163    1.0090 H   0  0  0  0  0  0  0  0  0  0  0  0
    0.1699    0.8862    1.8544 H   0  0  0  0  0  0  0  0  0  0  0  0
   -0.2248   -0.1374    3.2784 H   0  0  0  0  0  0  0  0  0  0  0  0
   -3.3942    2.7398   -1.2001 H   0  0  0  0  0  0  0  0  0  0  0  0
   -5.0572    2.1442   -0.9088 H   0  0  0  0  0  0  0  0  0  0  0  0
   -2.9802    2.9162    1.2088 H   0  0  0  0  0  0  0  0  0  0  0  0
   -4.4557    3.8111    0.8188 H   0  0  0  0  0  0  0  0  0  0  0  0
   -4.5596    2.2099    1.5766 H   0  0  0  0  0  0  0  0  0  0  0  0
   -0.8050   -1.1455   -2.2216 H   0  0  0  0  0  0  0  0  0  0  0  0
   -1.7474   -2.6308   -1.9031 H   0  0  0  0  0  0  0  0  0  0  0  0
   -3.8213   -1.3948   -2.6588 H   0  0  0  0  0  0  0  0  0  0  0  0
   -2.8118    0.0051   -3.0527 H   0  0  0  0  0  0  0  0  0  0  0  0
   -2.6060   -1.5097   -3.9470 H   0  0  0  0  0  0  0  0  0  0  0  0
  1  2  1  0  0  0  0
  2  3  1  0  0  0  0
  3  4  2  0  0  0  0
  4  5  2  0  0  0  0
  4  6  2  0  0  0  0
  6  7  1  0  0  0  0
  7  8  1  0  0  0  0
  4  9  1  0  0  0  0
  9 10  1  0  0  0  0
 10 11  1  0  0  0  0
 11 12  1  0  0  0  0
 12 13  2  0  0  0  0
 12 14  2  0  0  0  0
 14 15  1  0  0  0  0
 15 16  1  0  0  0  0
 12 17  2  0  0  0  0
 17 18  1  0  0  0  0
 18 19  1  0  0  0  0
  1 20  1  0  0  0  0
  1 21  1  0  0  0  0
  1 22  1  0  0  0  0
  2 23  1  0  0  0  0
  2 24  1  0  0  0  0
  7 25  1  0  0  0  0
  7 26  1  0  0  0  0
  8 27  1  0  0  0  0
  8 28  1  0  0  0  0
  8 29  1  0  0  0  0
 10 30  1  0  0  0  0
 10 31  1  0  0  0  0
 15 32  1  0  0  0  0
 15 33  1  0  0  0  0
 16 34  1  0  0  0  0
 16 35  1  0  0  0  0
 16 36  1  0  0  0  0
 18 37  1  0  0  0  0
 18 38  1  0  0  0  0
 19 39  1  0  0  0  0
 19 40  1  0  0  0  0
 19 41  1  0  0  0  0
M  END
