 xtb: 6.7.1 (edcfbbe)
          04092505203D

 41 40  0     0  0            999 V2000
    4.5772   -1.5453   -1.1293 C   0  0  0  0  0  0  0  0  0  0  0  0
    4.6708   -0.1535   -0.5383 C   0  0  0  0  0  0  0  0  0  0  0  0
    3.5474    0.1542    0.3053 O   0  0  0  0  0  0  0  0  0  0  0  0
    2.0728    0.3501   -0.2672 P   0  0  0  0  0  0  0  0  0  0  0  0
    2.0316    1.2777   -2.0000 S   0  0  0  0  0  0  0  0  0  0  0  0
    1.3876    1.0647    0.9690 O   0  0  0  0  0  0  0  0  0  0  0  0
    1.6131    2.4671    1.2293 C   0  0  0  0  0  0  0  0  0  0  0  0
    0.7809    2.8513    2.4336 C   0  0  0  0  0  0  0  0  0  0  0  0
    1.2116   -1.5543   -0.1528 S   0  0  0  0  0  0  0  0  0  0  0  0
   -0.0080   -1.4381   -1.5102 C   0  0  0  0  0  0  0  0  0  0  0  0
   -1.7052   -1.6777   -0.9552 S   0  0  0  0  0  0  0  0  0  0  0  0
   -1.8976    0.0786    0.2318 P   0  0  0  0  0  0  0  0  0  0  0  0
   -1.3201    1.7058   -0.6979 S   0  0  0  0  0  0  0  0  0  0  0  0
   -1.1343   -0.1391    1.5901 O   0  0  0  0  0  0  0  0  0  0  0  0
   -1.5805   -0.9520    2.7058 C   0  0  0  0  0  0  0  0  0  0  0  0
   -1.6660   -2.4244    2.3636 C   0  0  0  0  0  0  0  0  0  0  0  0
   -3.4137    0.0753    0.7025 O   0  0  0  0  0  0  0  0  0  0  0  0
   -4.5022    0.4127   -0.1786 C   0  0  0  0  0  0  0  0  0  0  0  0
   -5.1252   -0.8319   -0.7795 C   0  0  0  0  0  0  0  0  0  0  0  0
    4.4086   -2.2790   -0.3452 H   0  0  0  0  0  0  0  0  0  0  0  0
    3.7523   -1.5911   -1.8391 H   0  0  0  0  0  0  0  0  0  0  0  0
    5.5014   -1.7759   -1.6493 H   0  0  0  0  0  0  0  0  0  0  0  0
    4.7202    0.5985   -1.3324 H   0  0  0  0  0  0  0  0  0  0  0  0
    5.5304   -0.0525    0.1257 H   0  0  0  0  0  0  0  0  0  0  0  0
    2.6812    2.6183    1.4085 H   0  0  0  0  0  0  0  0  0  0  0  0
    1.3132    3.0319    0.3394 H   0  0  0  0  0  0  0  0  0  0  0  0
   -0.2704    2.6707    2.2222 H   0  0  0  0  0  0  0  0  0  0  0  0
    1.0759    2.2579    3.2939 H   0  0  0  0  0  0  0  0  0  0  0  0
    0.9282    3.9049    2.6471 H   0  0  0  0  0  0  0  0  0  0  0  0
    0.1925   -2.2426   -2.2131 H   0  0  0  0  0  0  0  0  0  0  0  0
    0.0974   -0.4604   -1.9890 H   0  0  0  0  0  0  0  0  0  0  0  0
   -0.8184   -0.7617    3.4633 H   0  0  0  0  0  0  0  0  0  0  0  0
   -2.5457   -0.5678    3.0401 H   0  0  0  0  0  0  0  0  0  0  0  0
   -2.4665   -2.6060    1.6501 H   0  0  0  0  0  0  0  0  0  0  0  0
   -0.7268   -2.7695    1.9363 H   0  0  0  0  0  0  0  0  0  0  0  0
   -1.8696   -2.9824    3.2724 H   0  0  0  0  0  0  0  0  0  0  0  0
   -5.2140    0.9433    0.4568 H   0  0  0  0  0  0  0  0  0  0  0  0
   -4.1325    1.0926   -0.9529 H   0  0  0  0  0  0  0  0  0  0  0  0
   -4.4066   -1.3570   -1.4045 H   0  0  0  0  0  0  0  0  0  0  0  0
   -5.4578   -1.4997    0.0100 H   0  0  0  0  0  0  0  0  0  0  0  0
   -5.9778   -0.5417   -1.3850 H   0  0  0  0  0  0  0  0  0  0  0  0
  1  2  1  0  0  0  0
  2  3  1  0  0  0  0
  3  4  2  0  0  0  0
  4  5  2  0  0  0  0
  4  6  2  0  0  0  0
  6  7  1  0  0  0  0
  7  8  1  0  0  0  0
  4  9  1  0  0  0  0
  9 10  1  0  0  0  0
 10 11  1  0  0  0  0
 11 12  1  0  0  0  0
 12 13  2  0  0  0  0
 12 14  2  0  0  0  0
 14 15  1  0  0  0  0
 15 16  1  0  0  0  0
 12 17  2  0  0  0  0
 17 18  1  0  0  0  0
 18 19  1  0  0  0  0
  1 20  1  0  0  0  0
  1 21  1  0  0  0  0
  1 22  1  0  0  0  0
  2 23  1  0  0  0  0
  2 24  1  0  0  0  0
  7 25  1  0  0  0  0
  7 26  1  0  0  0  0
  8 27  1  0  0  0  0
  8 28  1  0  0  0  0
  8 29  1  0  0  0  0
 10 30  1  0  0  0  0
 10 31  1  0  0  0  0
 15 32  1  0  0  0  0
 15 33  1  0  0  0  0
 16 34  1  0  0  0  0
 16 35  1  0  0  0  0
 16 36  1  0  0  0  0
 18 37  1  0  0  0  0
 18 38  1  0  0  0  0
 19 39  1  0  0  0  0
 19 40  1  0  0  0  0
 19 41  1  0  0  0  0
M  END
