 xtb: 6.7.1 (edcfbbe)
          04092505213D

 41 40  0     0  0            999 V2000
    3.4434   -0.7980   -3.0685 C   0  0  0  0  0  0  0  0  0  0  0  0
    2.1838   -0.4678   -2.2964 C   0  0  0  0  0  0  0  0  0  0  0  0
    2.4933    0.3663   -1.1528 O   0  0  0  0  0  0  0  0  0  0  0  0
    2.6332   -0.1969    0.3117 P   0  0  0  0  0  0  0  0  0  0  0  0
    3.1983    1.1919    1.5648 S   0  0  0  0  0  0  0  0  0  0  0  0
    3.6203   -1.4288    0.1287 O   0  0  0  0  0  0  0  0  0  0  0  0
    4.3323   -2.0229    1.2311 C   0  0  0  0  0  0  0  0  0  0  0  0
    3.4050   -2.6857    2.2285 C   0  0  0  0  0  0  0  0  0  0  0  0
    0.7564   -1.0959    0.7389 S   0  0  0  0  0  0  0  0  0  0  0  0
   -0.0163    0.4458    1.3461 C   0  0  0  0  0  0  0  0  0  0  0  0
   -1.7864    0.2417    1.5534 S   0  0  0  0  0  0  0  0  0  0  0  0
   -2.4056    0.7804   -0.4321 P   0  0  0  0  0  0  0  0  0  0  0  0
   -0.9949    1.0513   -1.7590 S   0  0  0  0  0  0  0  0  0  0  0  0
   -3.2080    2.1264   -0.2689 O   0  0  0  0  0  0  0  0  0  0  0  0
   -4.3299    2.2850    0.6350 C   0  0  0  0  0  0  0  0  0  0  0  0
   -5.6421    2.1280   -0.1060 C   0  0  0  0  0  0  0  0  0  0  0  0
   -3.5614   -0.2591   -0.7548 O   0  0  0  0  0  0  0  0  0  0  0  0
   -3.4570   -1.6915   -0.6420 C   0  0  0  0  0  0  0  0  0  0  0  0
   -2.2886   -2.2577   -1.4205 C   0  0  0  0  0  0  0  0  0  0  0  0
    3.1749   -1.3600   -3.9573 H   0  0  0  0  0  0  0  0  0  0  0  0
    3.9490    0.1179   -3.3616 H   0  0  0  0  0  0  0  0  0  0  0  0
    4.1163   -1.3915   -2.4551 H   0  0  0  0  0  0  0  0  0  0  0  0
    1.6804   -1.3739   -1.9480 H   0  0  0  0  0  0  0  0  0  0  0  0
    1.4857    0.1274   -2.8891 H   0  0  0  0  0  0  0  0  0  0  0  0
    4.9918   -2.7475    0.7513 H   0  0  0  0  0  0  0  0  0  0  0  0
    4.9256   -1.2420    1.7163 H   0  0  0  0  0  0  0  0  0  0  0  0
    2.7319   -3.3736    1.7228 H   0  0  0  0  0  0  0  0  0  0  0  0
    3.9962   -3.2295    2.9584 H   0  0  0  0  0  0  0  0  0  0  0  0
    2.8143   -1.9319    2.7468 H   0  0  0  0  0  0  0  0  0  0  0  0
    0.1787    1.2379    0.6201 H   0  0  0  0  0  0  0  0  0  0  0  0
    0.4056    0.6925    2.3184 H   0  0  0  0  0  0  0  0  0  0  0  0
   -4.2377    1.5560    1.4452 H   0  0  0  0  0  0  0  0  0  0  0  0
   -4.2176    3.2946    1.0343 H   0  0  0  0  0  0  0  0  0  0  0  0
   -6.4616    2.3122    0.5815 H   0  0  0  0  0  0  0  0  0  0  0  0
   -5.6933    2.8403   -0.9249 H   0  0  0  0  0  0  0  0  0  0  0  0
   -5.7301    1.1237   -0.5109 H   0  0  0  0  0  0  0  0  0  0  0  0
   -3.3743   -1.9450    0.4184 H   0  0  0  0  0  0  0  0  0  0  0  0
   -4.4097   -2.0482   -1.0372 H   0  0  0  0  0  0  0  0  0  0  0  0
   -2.3222   -1.9208   -2.4539 H   0  0  0  0  0  0  0  0  0  0  0  0
   -1.3479   -1.9306   -0.9788 H   0  0  0  0  0  0  0  0  0  0  0  0
   -2.3288   -3.3417   -1.3928 H   0  0  0  0  0  0  0  0  0  0  0  0
  1  2  1  0  0  0  0
  2  3  1  0  0  0  0
  3  4  2  0  0  0  0
  4  5  2  0  0  0  0
  4  6  2  0  0  0  0
  6  7  1  0  0  0  0
  7  8  1  0  0  0  0
  4  9  1  0  0  0  0
  9 10  1  0  0  0  0
 10 11  1  0  0  0  0
 11 12  1  0  0  0  0
 12 13  2  0  0  0  0
 12 14  2  0  0  0  0
 14 15  1  0  0  0  0
 15 16  1  0  0  0  0
 12 17  2  0  0  0  0
 17 18  1  0  0  0  0
 18 19  1  0  0  0  0
  1 20  1  0  0  0  0
  1 21  1  0  0  0  0
  1 22  1  0  0  0  0
  2 23  1  0  0  0  0
  2 24  1  0  0  0  0
  7 25  1  0  0  0  0
  7 26  1  0  0  0  0
  8 27  1  0  0  0  0
  8 28  1  0  0  0  0
  8 29  1  0  0  0  0
 10 30  1  0  0  0  0
 10 31  1  0  0  0  0
 15 32  1  0  0  0  0
 15 33  1  0  0  0  0
 16 34  1  0  0  0  0
 16 35  1  0  0  0  0
 16 36  1  0  0  0  0
 18 37  1  0  0  0  0
 18 38  1  0  0  0  0
 19 39  1  0  0  0  0
 19 40  1  0  0  0  0
 19 41  1  0  0  0  0
M  END
