 xtb: 6.7.1 (edcfbbe)
          04092505203D

 41 40  0     0  0            999 V2000
    3.6987   -1.8706   -2.2600 C   0  0  0  0  0  0  0  0  0  0  0  0
    3.9778   -0.3904   -2.1026 C   0  0  0  0  0  0  0  0  0  0  0  0
    3.5475    0.1110   -0.8241 O   0  0  0  0  0  0  0  0  0  0  0  0
    2.0164    0.1671   -0.4042 P   0  0  0  0  0  0  0  0  0  0  0  0
    0.7946    0.7030   -1.8392 S   0  0  0  0  0  0  0  0  0  0  0  0
    2.0148    1.2058    0.7821 O   0  0  0  0  0  0  0  0  0  0  0  0
    3.1070    1.4751    1.6946 C   0  0  0  0  0  0  0  0  0  0  0  0
    3.4564    0.2861    2.5645 C   0  0  0  0  0  0  0  0  0  0  0  0
    1.6671   -1.7451    0.4595 S   0  0  0  0  0  0  0  0  0  0  0  0
    0.0468   -1.4434    1.2046 C   0  0  0  0  0  0  0  0  0  0  0  0
   -1.3267   -1.4717    0.0126 S   0  0  0  0  0  0  0  0  0  0  0  0
   -2.0996    0.5019    0.2474 P   0  0  0  0  0  0  0  0  0  0  0  0
   -1.1100    1.6366    1.5011 S   0  0  0  0  0  0  0  0  0  0  0  0
   -3.6395    0.2398    0.5767 O   0  0  0  0  0  0  0  0  0  0  0  0
   -4.1404   -0.6636    1.5768 C   0  0  0  0  0  0  0  0  0  0  0  0
   -3.7497   -0.2556    2.9826 C   0  0  0  0  0  0  0  0  0  0  0  0
   -2.2338    1.2363   -1.1353 O   0  0  0  0  0  0  0  0  0  0  0  0
   -3.1326    0.8853   -2.2144 C   0  0  0  0  0  0  0  0  0  0  0  0
   -2.8170   -0.4688   -2.8131 C   0  0  0  0  0  0  0  0  0  0  0  0
    2.6239   -2.0424   -2.3011 H   0  0  0  0  0  0  0  0  0  0  0  0
    4.1460   -2.2228   -3.1839 H   0  0  0  0  0  0  0  0  0  0  0  0
    4.1108   -2.4271   -1.4222 H   0  0  0  0  0  0  0  0  0  0  0  0
    3.4705    0.1821   -2.8853 H   0  0  0  0  0  0  0  0  0  0  0  0
    5.0473   -0.1755   -2.1170 H   0  0  0  0  0  0  0  0  0  0  0  0
    3.9680    1.7970    1.1060 H   0  0  0  0  0  0  0  0  0  0  0  0
    2.7255    2.3088    2.2871 H   0  0  0  0  0  0  0  0  0  0  0  0
    2.5774   -0.0628    3.1010 H   0  0  0  0  0  0  0  0  0  0  0  0
    3.8509   -0.5265    1.9586 H   0  0  0  0  0  0  0  0  0  0  0  0
    4.2111    0.5911    3.2828 H   0  0  0  0  0  0  0  0  0  0  0  0
    0.0427   -0.4682    1.7028 H   0  0  0  0  0  0  0  0  0  0  0  0
   -0.1074   -2.2571    1.9081 H   0  0  0  0  0  0  0  0  0  0  0  0
   -5.2223   -0.6225    1.4382 H   0  0  0  0  0  0  0  0  0  0  0  0
   -3.7755   -1.6692    1.3476 H   0  0  0  0  0  0  0  0  0  0  0  0
   -2.6695   -0.3077    3.1058 H   0  0  0  0  0  0  0  0  0  0  0  0
   -4.0645    0.7660    3.1807 H   0  0  0  0  0  0  0  0  0  0  0  0
   -4.2230   -0.9235    3.6949 H   0  0  0  0  0  0  0  0  0  0  0  0
   -4.1549    0.9250   -1.8328 H   0  0  0  0  0  0  0  0  0  0  0  0
   -2.9694    1.6868   -2.9367 H   0  0  0  0  0  0  0  0  0  0  0  0
   -1.7627   -0.5181   -3.0784 H   0  0  0  0  0  0  0  0  0  0  0  0
   -3.0394   -1.2644   -2.1035 H   0  0  0  0  0  0  0  0  0  0  0  0
   -3.4179   -0.6117   -3.7056 H   0  0  0  0  0  0  0  0  0  0  0  0
  1  2  1  0  0  0  0
  2  3  1  0  0  0  0
  3  4  2  0  0  0  0
  4  5  2  0  0  0  0
  4  6  2  0  0  0  0
  6  7  1  0  0  0  0
  7  8  1  0  0  0  0
  4  9  1  0  0  0  0
  9 10  1  0  0  0  0
 10 11  1  0  0  0  0
 11 12  1  0  0  0  0
 12 13  2  0  0  0  0
 12 14  2  0  0  0  0
 14 15  1  0  0  0  0
 15 16  1  0  0  0  0
 12 17  2  0  0  0  0
 17 18  1  0  0  0  0
 18 19  1  0  0  0  0
  1 20  1  0  0  0  0
  1 21  1  0  0  0  0
  1 22  1  0  0  0  0
  2 23  1  0  0  0  0
  2 24  1  0  0  0  0
  7 25  1  0  0  0  0
  7 26  1  0  0  0  0
  8 27  1  0  0  0  0
  8 28  1  0  0  0  0
  8 29  1  0  0  0  0
 10 30  1  0  0  0  0
 10 31  1  0  0  0  0
 15 32  1  0  0  0  0
 15 33  1  0  0  0  0
 16 34  1  0  0  0  0
 16 35  1  0  0  0  0
 16 36  1  0  0  0  0
 18 37  1  0  0  0  0
 18 38  1  0  0  0  0
 19 39  1  0  0  0  0
 19 40  1  0  0  0  0
 19 41  1  0  0  0  0
M  END
