 xtb: 6.7.1 (edcfbbe)
          04092505213D

 41 40  0     0  0            999 V2000
    1.9779   -1.4902   -2.6328 C   0  0  0  0  0  0  0  0  0  0  0  0
    2.6794   -0.2271   -2.1748 C   0  0  0  0  0  0  0  0  0  0  0  0
    3.1977   -0.3881   -0.8414 O   0  0  0  0  0  0  0  0  0  0  0  0
    2.4919    0.1473    0.4747 P   0  0  0  0  0  0  0  0  0  0  0  0
    2.1037    2.0674    0.5588 S   0  0  0  0  0  0  0  0  0  0  0  0
    3.5595   -0.2266    1.5743 O   0  0  0  0  0  0  0  0  0  0  0  0
    4.4313   -1.3847    1.5556 C   0  0  0  0  0  0  0  0  0  0  0  0
    3.6699   -2.6929    1.5836 C   0  0  0  0  0  0  0  0  0  0  0  0
    0.8124   -1.1186    0.7998 S   0  0  0  0  0  0  0  0  0  0  0  0
   -0.2823    0.0618    1.6570 C   0  0  0  0  0  0  0  0  0  0  0  0
   -2.0213   -0.3062    1.3667 S   0  0  0  0  0  0  0  0  0  0  0  0
   -2.2606    0.5330   -0.5875 P   0  0  0  0  0  0  0  0  0  0  0  0
   -0.6631    0.9433   -1.6333 S   0  0  0  0  0  0  0  0  0  0  0  0
   -3.1434    1.8203   -0.3646 O   0  0  0  0  0  0  0  0  0  0  0  0
   -4.3928    1.8004    0.3755 C   0  0  0  0  0  0  0  0  0  0  0  0
   -4.2457    2.5972    1.6560 C   0  0  0  0  0  0  0  0  0  0  0  0
   -3.2962   -0.4512   -1.2894 O   0  0  0  0  0  0  0  0  0  0  0  0
   -2.8764   -1.6149   -2.0262 C   0  0  0  0  0  0  0  0  0  0  0  0
   -2.3064   -2.6934   -1.1271 C   0  0  0  0  0  0  0  0  0  0  0  0
    2.6462   -2.3422   -2.5481 H   0  0  0  0  0  0  0  0  0  0  0  0
    1.0913   -1.6679   -2.0295 H   0  0  0  0  0  0  0  0  0  0  0  0
    1.6762   -1.3667   -3.6675 H   0  0  0  0  0  0  0  0  0  0  0  0
    2.0027    0.6322   -2.2029 H   0  0  0  0  0  0  0  0  0  0  0  0
    3.5574   -0.0153   -2.7880 H   0  0  0  0  0  0  0  0  0  0  0  0
    5.0638   -1.3183    0.6687 H   0  0  0  0  0  0  0  0  0  0  0  0
    5.0358   -1.2509    2.4541 H   0  0  0  0  0  0  0  0  0  0  0  0
    4.3799   -3.5115    1.6489 H   0  0  0  0  0  0  0  0  0  0  0  0
    3.0029   -2.7284    2.4410 H   0  0  0  0  0  0  0  0  0  0  0  0
    3.0789   -2.8072    0.6769 H   0  0  0  0  0  0  0  0  0  0  0  0
   -0.0379    1.0677    1.3051 H   0  0  0  0  0  0  0  0  0  0  0  0
   -0.1292   -0.0288    2.7295 H   0  0  0  0  0  0  0  0  0  0  0  0
   -5.1256    2.2532   -0.2939 H   0  0  0  0  0  0  0  0  0  0  0  0
   -4.6714    0.7644    0.5800 H   0  0  0  0  0  0  0  0  0  0  0  0
   -3.5382    2.1147    2.3259 H   0  0  0  0  0  0  0  0  0  0  0  0
   -3.8895    3.5990    1.4313 H   0  0  0  0  0  0  0  0  0  0  0  0
   -5.2116    2.6615    2.1467 H   0  0  0  0  0  0  0  0  0  0  0  0
   -3.7885   -1.9472   -2.5241 H   0  0  0  0  0  0  0  0  0  0  0  0
   -2.1388   -1.3005   -2.7712 H   0  0  0  0  0  0  0  0  0  0  0  0
   -3.0026   -2.9251   -0.3252 H   0  0  0  0  0  0  0  0  0  0  0  0
   -2.1245   -3.5867   -1.7156 H   0  0  0  0  0  0  0  0  0  0  0  0
   -1.3648   -2.3654   -0.6881 H   0  0  0  0  0  0  0  0  0  0  0  0
  1  2  1  0  0  0  0
  2  3  1  0  0  0  0
  3  4  2  0  0  0  0
  4  5  2  0  0  0  0
  4  6  2  0  0  0  0
  6  7  1  0  0  0  0
  7  8  1  0  0  0  0
  4  9  1  0  0  0  0
  9 10  1  0  0  0  0
 10 11  1  0  0  0  0
 11 12  1  0  0  0  0
 12 13  2  0  0  0  0
 12 14  2  0  0  0  0
 14 15  1  0  0  0  0
 15 16  1  0  0  0  0
 12 17  2  0  0  0  0
 17 18  1  0  0  0  0
 18 19  1  0  0  0  0
  1 20  1  0  0  0  0
  1 21  1  0  0  0  0
  1 22  1  0  0  0  0
  2 23  1  0  0  0  0
  2 24  1  0  0  0  0
  7 25  1  0  0  0  0
  7 26  1  0  0  0  0
  8 27  1  0  0  0  0
  8 28  1  0  0  0  0
  8 29  1  0  0  0  0
 10 30  1  0  0  0  0
 10 31  1  0  0  0  0
 15 32  1  0  0  0  0
 15 33  1  0  0  0  0
 16 34  1  0  0  0  0
 16 35  1  0  0  0  0
 16 36  1  0  0  0  0
 18 37  1  0  0  0  0
 18 38  1  0  0  0  0
 19 39  1  0  0  0  0
 19 40  1  0  0  0  0
 19 41  1  0  0  0  0
M  END
