 xtb: 6.7.1 (edcfbbe)
          04092505213D

 41 40  0     0  0            999 V2000
    2.4123   -3.6070   -1.0483 C   0  0  0  0  0  0  0  0  0  0  0  0
    1.7111   -2.3609   -0.5483 C   0  0  0  0  0  0  0  0  0  0  0  0
    2.7051   -1.3305   -0.3866 O   0  0  0  0  0  0  0  0  0  0  0  0
    2.3024    0.1792   -0.0842 P   0  0  0  0  0  0  0  0  0  0  0  0
    1.0523    0.9788   -1.3631 S   0  0  0  0  0  0  0  0  0  0  0  0
    3.6873    0.9164   -0.0783 O   0  0  0  0  0  0  0  0  0  0  0  0
    4.7828    0.5735    0.8119 C   0  0  0  0  0  0  0  0  0  0  0  0
    5.7185   -0.4255    0.1642 C   0  0  0  0  0  0  0  0  0  0  0  0
    1.6925    0.1466    1.9659 S   0  0  0  0  0  0  0  0  0  0  0  0
   -0.0326    0.6324    1.7919 C   0  0  0  0  0  0  0  0  0  0  0  0
   -1.0500   -0.6673    1.0179 S   0  0  0  0  0  0  0  0  0  0  0  0
   -2.3008    0.5397   -0.2233 P   0  0  0  0  0  0  0  0  0  0  0  0
   -2.1547    2.4747    0.0134 S   0  0  0  0  0  0  0  0  0  0  0  0
   -3.7298   -0.1269    0.0063 O   0  0  0  0  0  0  0  0  0  0  0  0
   -4.3461   -0.3742    1.2831 C   0  0  0  0  0  0  0  0  0  0  0  0
   -4.5234    0.8853    2.1052 C   0  0  0  0  0  0  0  0  0  0  0  0
   -2.0256    0.1438   -1.7193 O   0  0  0  0  0  0  0  0  0  0  0  0
   -2.0291   -1.2201   -2.2061 C   0  0  0  0  0  0  0  0  0  0  0  0
   -3.3340   -1.5331   -2.9089 C   0  0  0  0  0  0  0  0  0  0  0  0
    3.1576   -3.9287   -0.3270 H   0  0  0  0  0  0  0  0  0  0  0  0
    1.6802   -4.3962   -1.1832 H   0  0  0  0  0  0  0  0  0  0  0  0
    2.9019   -3.4044   -1.9966 H   0  0  0  0  0  0  0  0  0  0  0  0
    1.2274   -2.5329    0.4184 H   0  0  0  0  0  0  0  0  0  0  0  0
    0.9597   -2.0069   -1.2619 H   0  0  0  0  0  0  0  0  0  0  0  0
    5.2818    1.5264    0.9964 H   0  0  0  0  0  0  0  0  0  0  0  0
    4.3686    0.1860    1.7466 H   0  0  0  0  0  0  0  0  0  0  0  0
    6.5630   -0.5971    0.8243 H   0  0  0  0  0  0  0  0  0  0  0  0
    5.2043   -1.3653   -0.0146 H   0  0  0  0  0  0  0  0  0  0  0  0
    6.0780   -0.0369   -0.7847 H   0  0  0  0  0  0  0  0  0  0  0  0
   -0.1185    1.5383    1.1865 H   0  0  0  0  0  0  0  0  0  0  0  0
   -0.3928    0.7999    2.8041 H   0  0  0  0  0  0  0  0  0  0  0  0
   -5.3095   -0.8147    1.0205 H   0  0  0  0  0  0  0  0  0  0  0  0
   -3.7373   -1.1067    1.8209 H   0  0  0  0  0  0  0  0  0  0  0  0
   -5.0648    0.6480    3.0153 H   0  0  0  0  0  0  0  0  0  0  0  0
   -3.5541    1.3078    2.3654 H   0  0  0  0  0  0  0  0  0  0  0  0
   -5.0760    1.6320    1.5400 H   0  0  0  0  0  0  0  0  0  0  0  0
   -1.1832   -1.2635   -2.8959 H   0  0  0  0  0  0  0  0  0  0  0  0
   -1.8569   -1.8990   -1.3652 H   0  0  0  0  0  0  0  0  0  0  0  0
   -3.4983   -0.8241   -3.7157 H   0  0  0  0  0  0  0  0  0  0  0  0
   -3.2852   -2.5378   -3.3167 H   0  0  0  0  0  0  0  0  0  0  0  0
   -4.1633   -1.4653   -2.2100 H   0  0  0  0  0  0  0  0  0  0  0  0
  1  2  1  0  0  0  0
  2  3  1  0  0  0  0
  3  4  2  0  0  0  0
  4  5  2  0  0  0  0
  4  6  2  0  0  0  0
  6  7  1  0  0  0  0
  7  8  1  0  0  0  0
  4  9  1  0  0  0  0
  9 10  1  0  0  0  0
 10 11  1  0  0  0  0
 11 12  1  0  0  0  0
 12 13  2  0  0  0  0
 12 14  2  0  0  0  0
 14 15  1  0  0  0  0
 15 16  1  0  0  0  0
 12 17  2  0  0  0  0
 17 18  1  0  0  0  0
 18 19  1  0  0  0  0
  1 20  1  0  0  0  0
  1 21  1  0  0  0  0
  1 22  1  0  0  0  0
  2 23  1  0  0  0  0
  2 24  1  0  0  0  0
  7 25  1  0  0  0  0
  7 26  1  0  0  0  0
  8 27  1  0  0  0  0
  8 28  1  0  0  0  0
  8 29  1  0  0  0  0
 10 30  1  0  0  0  0
 10 31  1  0  0  0  0
 15 32  1  0  0  0  0
 15 33  1  0  0  0  0
 16 34  1  0  0  0  0
 16 35  1  0  0  0  0
 16 36  1  0  0  0  0
 18 37  1  0  0  0  0
 18 38  1  0  0  0  0
 19 39  1  0  0  0  0
 19 40  1  0  0  0  0
 19 41  1  0  0  0  0
M  END
