 xtb: 6.7.1 (edcfbbe)
          04092505203D

 41 40  0     0  0            999 V2000
    3.4334   -1.3438    1.8630 C   0  0  0  0  0  0  0  0  0  0  0  0
    4.1802   -0.2464    1.1360 C   0  0  0  0  0  0  0  0  0  0  0  0
    3.6434    0.0404   -0.1786 O   0  0  0  0  0  0  0  0  0  0  0  0
    2.1249    0.3383   -0.5338 P   0  0  0  0  0  0  0  0  0  0  0  0
    2.0053    1.2555   -2.2569 S   0  0  0  0  0  0  0  0  0  0  0  0
    1.5031    1.1016    0.7281 O   0  0  0  0  0  0  0  0  0  0  0  0
    1.3809    2.5330    0.7651 C   0  0  0  0  0  0  0  0  0  0  0  0
    2.7094    3.1978    1.0607 C   0  0  0  0  0  0  0  0  0  0  0  0
    1.2272   -1.5637   -0.4417 S   0  0  0  0  0  0  0  0  0  0  0  0
   -0.0449   -1.4164   -1.7379 C   0  0  0  0  0  0  0  0  0  0  0  0
   -1.6992   -1.7700   -1.1163 S   0  0  0  0  0  0  0  0  0  0  0  0
   -1.9002   -0.0362    0.1050 P   0  0  0  0  0  0  0  0  0  0  0  0
   -1.4619    1.6187   -0.8517 S   0  0  0  0  0  0  0  0  0  0  0  0
   -1.0471   -0.2022    1.4149 O   0  0  0  0  0  0  0  0  0  0  0  0
   -1.3741   -1.0447    2.5521 C   0  0  0  0  0  0  0  0  0  0  0  0
   -1.3943   -2.5182    2.2055 C   0  0  0  0  0  0  0  0  0  0  0  0
   -3.3875   -0.1467    0.6424 O   0  0  0  0  0  0  0  0  0  0  0  0
   -4.5144    0.0446   -0.2382 C   0  0  0  0  0  0  0  0  0  0  0  0
   -5.7446    0.2490    0.6222 C   0  0  0  0  0  0  0  0  0  0  0  0
    3.4166   -2.2545    1.2692 H   0  0  0  0  0  0  0  0  0  0  0  0
    3.9287   -1.5415    2.8088 H   0  0  0  0  0  0  0  0  0  0  0  0
    2.4083   -1.0319    2.0573 H   0  0  0  0  0  0  0  0  0  0  0  0
    5.2114   -0.5327    0.9227 H   0  0  0  0  0  0  0  0  0  0  0  0
    4.1673    0.6797    1.7151 H   0  0  0  0  0  0  0  0  0  0  0  0
    0.9807    2.8775   -0.1944 H   0  0  0  0  0  0  0  0  0  0  0  0
    0.6424    2.7197    1.5464 H   0  0  0  0  0  0  0  0  0  0  0  0
    3.0933    2.8730    2.0243 H   0  0  0  0  0  0  0  0  0  0  0  0
    3.4267    2.9457    0.2792 H   0  0  0  0  0  0  0  0  0  0  0  0
    2.5721    4.2745    1.0753 H   0  0  0  0  0  0  0  0  0  0  0  0
    0.1610   -2.1619   -2.5016 H   0  0  0  0  0  0  0  0  0  0  0  0
   -0.0055   -0.4060   -2.1556 H   0  0  0  0  0  0  0  0  0  0  0  0
   -0.5796   -0.8114    3.2628 H   0  0  0  0  0  0  0  0  0  0  0  0
   -2.3373   -0.7189    2.9477 H   0  0  0  0  0  0  0  0  0  0  0  0
   -2.2292   -2.7445    1.5462 H   0  0  0  0  0  0  0  0  0  0  0  0
   -0.4685   -2.8058    1.7117 H   0  0  0  0  0  0  0  0  0  0  0  0
   -1.5028   -3.0910    3.1213 H   0  0  0  0  0  0  0  0  0  0  0  0
   -4.3164    0.9144   -0.8729 H   0  0  0  0  0  0  0  0  0  0  0  0
   -4.6075   -0.8436   -0.8683 H   0  0  0  0  0  0  0  0  0  0  0  0
   -5.9035   -0.6182    1.2562 H   0  0  0  0  0  0  0  0  0  0  0  0
   -5.6208    1.1281    1.2484 H   0  0  0  0  0  0  0  0  0  0  0  0
   -6.6077    0.3870   -0.0206 H   0  0  0  0  0  0  0  0  0  0  0  0
  1  2  1  0  0  0  0
  2  3  1  0  0  0  0
  3  4  2  0  0  0  0
  4  5  2  0  0  0  0
  4  6  1  0  0  0  0
  6  7  1  0  0  0  0
  7  8  1  0  0  0  0
  4  9  1  0  0  0  0
  9 10  1  0  0  0  0
 10 11  1  0  0  0  0
 11 12  1  0  0  0  0
 12 13  2  0  0  0  0
 12 14  2  0  0  0  0
 14 15  1  0  0  0  0
 15 16  1  0  0  0  0
 12 17  2  0  0  0  0
 17 18  1  0  0  0  0
 18 19  1  0  0  0  0
  1 20  1  0  0  0  0
  1 21  1  0  0  0  0
  1 22  1  0  0  0  0
  2 23  1  0  0  0  0
  2 24  1  0  0  0  0
  7 25  1  0  0  0  0
  7 26  1  0  0  0  0
  8 27  1  0  0  0  0
  8 28  1  0  0  0  0
  8 29  1  0  0  0  0
 10 30  1  0  0  0  0
 10 31  1  0  0  0  0
 15 32  1  0  0  0  0
 15 33  1  0  0  0  0
 16 34  1  0  0  0  0
 16 35  1  0  0  0  0
 16 36  1  0  0  0  0
 18 37  1  0  0  0  0
 18 38  1  0  0  0  0
 19 39  1  0  0  0  0
 19 40  1  0  0  0  0
 19 41  1  0  0  0  0
M  END
