 xtb: 6.7.1 (edcfbbe)
          04032519423D

 20 20  0     0  0            999 V2000
    0.8441    1.4163   -0.5988 C   0  0  0  0  0  0  0  0  0  0  0  0
    1.5928    0.1894   -0.0566 C   0  0  0  0  0  0  0  0  0  0  0  0
    2.5661    0.1084   -0.5516 H   0  0  0  0  0  0  0  0  0  0  0  0
    0.7852   -1.1013   -0.3305 C   0  0  0  0  0  0  0  0  0  0  0  0
    1.2332   -1.9059    0.2658 H   0  0  0  0  0  0  0  0  0  0  0  0
   -0.6831   -0.9160    0.1166 C   0  0  0  0  0  0  0  0  0  0  0  0
   -1.2841   -1.7469   -0.2770 H   0  0  0  0  0  0  0  0  0  0  0  0
   -1.2692    0.3969   -0.4478 C   0  0  0  0  0  0  0  0  0  0  0  0
   -1.3283    0.3347   -1.5475 H   0  0  0  0  0  0  0  0  0  0  0  0
   -0.4678    1.4985   -0.0759 O   0  0  0  0  0  0  0  0  0  0  0  0
   -2.5534    0.6165   -0.0034 O   0  0  0  0  0  0  0  0  0  0  0  0
   -0.7909   -0.8261    1.5194 O   0  0  0  0  0  0  0  0  0  0  0  0
    0.8819   -1.5425   -1.6604 O   0  0  0  0  0  0  0  0  0  0  0  0
    1.8667    0.3249    1.3149 O   0  0  0  0  0  0  0  0  0  0  0  0
    0.8106    1.3921   -1.6964 H   0  0  0  0  0  0  0  0  0  0  0  0
    1.3432    2.3283   -0.2702 H   0  0  0  0  0  0  0  0  0  0  0  0
   -2.5455    0.6336    0.9688 H   0  0  0  0  0  0  0  0  0  0  0  0
   -0.6562   -1.6963    1.9189 H   0  0  0  0  0  0  0  0  0  0  0  0
    0.5895   -0.8548   -2.2734 H   0  0  0  0  0  0  0  0  0  0  0  0
    1.0233    0.4494    1.7820 H   0  0  0  0  0  0  0  0  0  0  0  0
  1  2  1  0  0  0  0
  2  3  1  0  0  0  0
  2  4  1  0  0  0  0
  4  5  1  0  0  0  0
  4  6  1  0  0  0  0
  6  7  1  0  0  0  0
  6  8  1  0  0  0  0
  8  9  1  0  0  0  0
  1 10  1  0  0  0  0
  8 10  1  0  0  0  0
  8 11  1  0  0  0  0
  6 12  1  0  0  0  0
  4 13  1  0  0  0  0
  2 14  1  0  0  0  0
  1 15  1  0  0  0  0
  1 16  1  0  0  0  0
 11 17  1  0  0  0  0
 12 18  1  0  0  0  0
 13 19  1  0  0  0  0
 14 20  1  0  0  0  0
M  END
