 xtb: 6.7.1 (edcfbbe)
          04092505203D

 41 40  0     0  0            999 V2000
    4.3528   -0.2713   -2.2259 C   0  0  0  0  0  0  0  0  0  0  0  0
    4.4278    0.8159   -1.1735 C   0  0  0  0  0  0  0  0  0  0  0  0
    3.6864    0.4850    0.0136 O   0  0  0  0  0  0  0  0  0  0  0  0
    2.1045    0.3168    0.0347 P   0  0  0  0  0  0  0  0  0  0  0  0
    1.0980    1.6215   -1.0273 S   0  0  0  0  0  0  0  0  0  0  0  0
    1.7962    0.4518    1.5760 O   0  0  0  0  0  0  0  0  0  0  0  0
    2.4564   -0.3664    2.5836 C   0  0  0  0  0  0  0  0  0  0  0  0
    1.4247   -1.1854    3.3314 C   0  0  0  0  0  0  0  0  0  0  0  0
    1.8263   -1.7365   -0.4393 S   0  0  0  0  0  0  0  0  0  0  0  0
    0.0629   -1.6766   -0.8262 C   0  0  0  0  0  0  0  0  0  0  0  0
   -0.9427   -1.1146    0.5847 S   0  0  0  0  0  0  0  0  0  0  0  0
   -2.1611    0.3581   -0.3465 P   0  0  0  0  0  0  0  0  0  0  0  0
   -2.0940    0.4582   -2.2999 S   0  0  0  0  0  0  0  0  0  0  0  0
   -1.8504    1.7344    0.3551 O   0  0  0  0  0  0  0  0  0  0  0  0
   -1.4198    1.9389    1.7202 C   0  0  0  0  0  0  0  0  0  0  0  0
   -2.3356    1.2827    2.7304 C   0  0  0  0  0  0  0  0  0  0  0  0
   -3.6198    0.0525    0.2205 O   0  0  0  0  0  0  0  0  0  0  0  0
   -4.5345   -0.8478   -0.4243 C   0  0  0  0  0  0  0  0  0  0  0  0
   -4.0414   -2.2808   -0.4186 C   0  0  0  0  0  0  0  0  0  0  0  0
    3.3417   -0.3339   -2.6260 H   0  0  0  0  0  0  0  0  0  0  0  0
    5.0338   -0.0314   -3.0362 H   0  0  0  0  0  0  0  0  0  0  0  0
    4.6232   -1.2336   -1.7985 H   0  0  0  0  0  0  0  0  0  0  0  0
    4.0411    1.7605   -1.5683 H   0  0  0  0  0  0  0  0  0  0  0  0
    5.4468    0.9551   -0.8094 H   0  0  0  0  0  0  0  0  0  0  0  0
    3.1948   -1.0050    2.0942 H   0  0  0  0  0  0  0  0  0  0  0  0
    2.9630    0.3410    3.2416 H   0  0  0  0  0  0  0  0  0  0  0  0
    0.6761   -0.5337    3.7724 H   0  0  0  0  0  0  0  0  0  0  0  0
    0.9268   -1.8793    2.6583 H   0  0  0  0  0  0  0  0  0  0  0  0
    1.9224   -1.7443    4.1173 H   0  0  0  0  0  0  0  0  0  0  0  0
   -0.2200   -2.6963   -1.0759 H   0  0  0  0  0  0  0  0  0  0  0  0
   -0.1194   -0.9995   -1.6658 H   0  0  0  0  0  0  0  0  0  0  0  0
   -0.3939    1.5686    1.8117 H   0  0  0  0  0  0  0  0  0  0  0  0
   -1.4190    3.0259    1.8170 H   0  0  0  0  0  0  0  0  0  0  0  0
   -3.3582    1.6195    2.5816 H   0  0  0  0  0  0  0  0  0  0  0  0
   -2.3022    0.1995    2.6233 H   0  0  0  0  0  0  0  0  0  0  0  0
   -2.0085    1.5514    3.7302 H   0  0  0  0  0  0  0  0  0  0  0  0
   -5.4552   -0.7357    0.1501 H   0  0  0  0  0  0  0  0  0  0  0  0
   -4.6918   -0.5019   -1.4510 H   0  0  0  0  0  0  0  0  0  0  0  0
   -3.1710   -2.3730   -1.0669 H   0  0  0  0  0  0  0  0  0  0  0  0
   -3.7706   -2.5863    0.5887 H   0  0  0  0  0  0  0  0  0  0  0  0
   -4.8265   -2.9291   -0.7942 H   0  0  0  0  0  0  0  0  0  0  0  0
  1  2  1  0  0  0  0
  2  3  1  0  0  0  0
  3  4  2  0  0  0  0
  4  5  2  0  0  0  0
  4  6  2  0  0  0  0
  6  7  1  0  0  0  0
  7  8  1  0  0  0  0
  4  9  1  0  0  0  0
  9 10  1  0  0  0  0
 10 11  1  0  0  0  0
 11 12  1  0  0  0  0
 12 13  2  0  0  0  0
 12 14  2  0  0  0  0
 14 15  1  0  0  0  0
 15 16  1  0  0  0  0
 12 17  2  0  0  0  0
 17 18  1  0  0  0  0
 18 19  1  0  0  0  0
  1 20  1  0  0  0  0
  1 21  1  0  0  0  0
  1 22  1  0  0  0  0
  2 23  1  0  0  0  0
  2 24  1  0  0  0  0
  7 25  1  0  0  0  0
  7 26  1  0  0  0  0
  8 27  1  0  0  0  0
  8 28  1  0  0  0  0
  8 29  1  0  0  0  0
 10 30  1  0  0  0  0
 10 31  1  0  0  0  0
 15 32  1  0  0  0  0
 15 33  1  0  0  0  0
 16 34  1  0  0  0  0
 16 35  1  0  0  0  0
 16 36  1  0  0  0  0
 18 37  1  0  0  0  0
 18 38  1  0  0  0  0
 19 39  1  0  0  0  0
 19 40  1  0  0  0  0
 19 41  1  0  0  0  0
M  END
