 xtb: 6.7.1 (edcfbbe)
          04092505213D

 41 40  0     0  0            999 V2000
    3.5673    2.0005   -1.5825 C   0  0  0  0  0  0  0  0  0  0  0  0
    3.8435    1.9569   -0.0935 C   0  0  0  0  0  0  0  0  0  0  0  0
    3.5394    0.6657    0.4593 O   0  0  0  0  0  0  0  0  0  0  0  0
    2.0581    0.2370    0.8437 P   0  0  0  0  0  0  0  0  0  0  0  0
    1.0350    1.6572    1.7265 S   0  0  0  0  0  0  0  0  0  0  0  0
    2.2859   -1.0316    1.7553 O   0  0  0  0  0  0  0  0  0  0  0  0
    3.5026   -1.8213    1.8021 C   0  0  0  0  0  0  0  0  0  0  0  0
    3.7474   -2.6024    0.5277 C   0  0  0  0  0  0  0  0  0  0  0  0
    1.2349   -0.5215   -0.9874 S   0  0  0  0  0  0  0  0  0  0  0  0
    0.1699   -1.8208   -0.3111 C   0  0  0  0  0  0  0  0  0  0  0  0
   -1.0090   -1.2357    0.9401 S   0  0  0  0  0  0  0  0  0  0  0  0
   -2.2463   -0.1312   -0.3580 P   0  0  0  0  0  0  0  0  0  0  0  0
   -2.4647   -0.8533   -2.1695 S   0  0  0  0  0  0  0  0  0  0  0  0
   -1.6413    1.3202   -0.2562 O   0  0  0  0  0  0  0  0  0  0  0  0
   -1.8221    2.3400   -1.2665 C   0  0  0  0  0  0  0  0  0  0  0  0
   -0.4742    2.7265   -1.8398 C   0  0  0  0  0  0  0  0  0  0  0  0
   -3.5814    0.0391    0.4911 O   0  0  0  0  0  0  0  0  0  0  0  0
   -4.5215   -1.0412    0.6702 C   0  0  0  0  0  0  0  0  0  0  0  0
   -5.6451   -0.9501   -0.3441 C   0  0  0  0  0  0  0  0  0  0  0  0
    4.1353    1.2297   -2.0958 H   0  0  0  0  0  0  0  0  0  0  0  0
    2.5078    1.8349   -1.7710 H   0  0  0  0  0  0  0  0  0  0  0  0
    3.8470    2.9740   -1.9715 H   0  0  0  0  0  0  0  0  0  0  0  0
    3.2545    2.7110    0.4398 H   0  0  0  0  0  0  0  0  0  0  0  0
    4.9038    2.0974    0.1222 H   0  0  0  0  0  0  0  0  0  0  0  0
    4.3364   -1.1488    2.0084 H   0  0  0  0  0  0  0  0  0  0  0  0
    3.3360   -2.4805    2.6555 H   0  0  0  0  0  0  0  0  0  0  0  0
    2.9419   -3.3079    0.3404 H   0  0  0  0  0  0  0  0  0  0  0  0
    3.8317   -1.9255   -0.3195 H   0  0  0  0  0  0  0  0  0  0  0  0
    4.6768   -3.1543    0.6307 H   0  0  0  0  0  0  0  0  0  0  0  0
    0.7703   -2.5840    0.1761 H   0  0  0  0  0  0  0  0  0  0  0  0
   -0.3772   -2.2275   -1.1630 H   0  0  0  0  0  0  0  0  0  0  0  0
   -2.4883    1.9575   -2.0463 H   0  0  0  0  0  0  0  0  0  0  0  0
   -2.2949    3.1789   -0.7533 H   0  0  0  0  0  0  0  0  0  0  0  0
   -0.0488    1.8906   -2.3916 H   0  0  0  0  0  0  0  0  0  0  0  0
   -0.5975    3.5722   -2.5081 H   0  0  0  0  0  0  0  0  0  0  0  0
    0.1988    2.9998   -1.0301 H   0  0  0  0  0  0  0  0  0  0  0  0
   -3.9941   -1.9961    0.5881 H   0  0  0  0  0  0  0  0  0  0  0  0
   -4.8924   -0.9177    1.6894 H   0  0  0  0  0  0  0  0  0  0  0  0
   -6.3712   -1.7311   -0.1431 H   0  0  0  0  0  0  0  0  0  0  0  0
   -6.1298    0.0198   -0.2760 H   0  0  0  0  0  0  0  0  0  0  0  0
   -5.2548   -1.0783   -1.3513 H   0  0  0  0  0  0  0  0  0  0  0  0
  1  2  1  0  0  0  0
  2  3  1  0  0  0  0
  3  4  2  0  0  0  0
  4  5  2  0  0  0  0
  4  6  2  0  0  0  0
  6  7  1  0  0  0  0
  7  8  1  0  0  0  0
  4  9  1  0  0  0  0
  9 10  1  0  0  0  0
 10 11  1  0  0  0  0
 11 12  1  0  0  0  0
 12 13  2  0  0  0  0
 12 14  2  0  0  0  0
 14 15  1  0  0  0  0
 15 16  1  0  0  0  0
 12 17  2  0  0  0  0
 17 18  1  0  0  0  0
 18 19  1  0  0  0  0
  1 20  1  0  0  0  0
  1 21  1  0  0  0  0
  1 22  1  0  0  0  0
  2 23  1  0  0  0  0
  2 24  1  0  0  0  0
  7 25  1  0  0  0  0
  7 26  1  0  0  0  0
  8 27  1  0  0  0  0
  8 28  1  0  0  0  0
  8 29  1  0  0  0  0
 10 30  1  0  0  0  0
 10 31  1  0  0  0  0
 15 32  1  0  0  0  0
 15 33  1  0  0  0  0
 16 34  1  0  0  0  0
 16 35  1  0  0  0  0
 16 36  1  0  0  0  0
 18 37  1  0  0  0  0
 18 38  1  0  0  0  0
 19 39  1  0  0  0  0
 19 40  1  0  0  0  0
 19 41  1  0  0  0  0
M  END
