 xtb: 6.7.1 (edcfbbe)
          04092505213D

 41 40  0     0  0            999 V2000
    1.3817   -3.3155   -0.1187 C   0  0  0  0  0  0  0  0  0  0  0  0
    2.6756   -2.5281   -0.0937 C   0  0  0  0  0  0  0  0  0  0  0  0
    2.4475   -1.2334    0.5019 O   0  0  0  0  0  0  0  0  0  0  0  0
    2.7877    0.1624   -0.1959 P   0  0  0  0  0  0  0  0  0  0  0  0
    3.2279    0.0703   -2.0981 S   0  0  0  0  0  0  0  0  0  0  0  0
    3.9836    0.7707    0.6448 O   0  0  0  0  0  0  0  0  0  0  0  0
    4.0122    0.7975    2.0950 C   0  0  0  0  0  0  0  0  0  0  0  0
    3.5812    2.1516    2.6214 C   0  0  0  0  0  0  0  0  0  0  0  0
    1.1157    1.3446    0.3274 S   0  0  0  0  0  0  0  0  0  0  0  0
    0.0569    0.8866   -1.0705 C   0  0  0  0  0  0  0  0  0  0  0  0
   -0.9294   -0.5979   -0.7881 S   0  0  0  0  0  0  0  0  0  0  0  0
   -2.8161    0.2846   -0.2853 P   0  0  0  0  0  0  0  0  0  0  0  0
   -2.8747    2.2391   -0.4139 S   0  0  0  0  0  0  0  0  0  0  0  0
   -3.2512   -0.3189    1.1218 O   0  0  0  0  0  0  0  0  0  0  0  0
   -2.8869    0.2773    2.3779 C   0  0  0  0  0  0  0  0  0  0  0  0
   -1.4533   -0.0317    2.7583 C   0  0  0  0  0  0  0  0  0  0  0  0
   -3.8525   -0.3958   -1.2604 O   0  0  0  0  0  0  0  0  0  0  0  0
   -4.4170   -1.7197   -1.0934 C   0  0  0  0  0  0  0  0  0  0  0  0
   -3.3627   -2.8054   -1.1105 C   0  0  0  0  0  0  0  0  0  0  0  0
    0.9744   -3.3937    0.8848 H   0  0  0  0  0  0  0  0  0  0  0  0
    0.6523   -2.8223   -0.7563 H   0  0  0  0  0  0  0  0  0  0  0  0
    1.5816   -4.3094   -0.5052 H   0  0  0  0  0  0  0  0  0  0  0  0
    3.0749   -2.3880   -1.1037 H   0  0  0  0  0  0  0  0  0  0  0  0
    3.4275   -3.0198    0.5274 H   0  0  0  0  0  0  0  0  0  0  0  0
    3.3728   -0.0008    2.4774 H   0  0  0  0  0  0  0  0  0  0  0  0
    5.0545    0.5916    2.3448 H   0  0  0  0  0  0  0  0  0  0  0  0
    2.5402    2.3468    2.3731 H   0  0  0  0  0  0  0  0  0  0  0  0
    3.6979    2.1644    3.7005 H   0  0  0  0  0  0  0  0  0  0  0  0
    4.1960    2.9339    2.1850 H   0  0  0  0  0  0  0  0  0  0  0  0
    0.6929    0.7061   -1.9383 H   0  0  0  0  0  0  0  0  0  0  0  0
   -0.6189    1.7277   -1.2399 H   0  0  0  0  0  0  0  0  0  0  0  0
   -3.0485    1.3581    2.3126 H   0  0  0  0  0  0  0  0  0  0  0  0
   -3.5917   -0.1592    3.0877 H   0  0  0  0  0  0  0  0  0  0  0  0
   -0.7653    0.4759    2.0847 H   0  0  0  0  0  0  0  0  0  0  0  0
   -1.2695    0.3190    3.7687 H   0  0  0  0  0  0  0  0  0  0  0  0
   -1.2729   -1.1023    2.7103 H   0  0  0  0  0  0  0  0  0  0  0  0
   -4.9789   -1.7344   -0.1577 H   0  0  0  0  0  0  0  0  0  0  0  0
   -5.1001   -1.8063   -1.9396 H   0  0  0  0  0  0  0  0  0  0  0  0
   -2.7795   -2.7560   -2.0264 H   0  0  0  0  0  0  0  0  0  0  0  0
   -2.6908   -2.6894   -0.2619 H   0  0  0  0  0  0  0  0  0  0  0  0
   -3.8492   -3.7737   -1.0476 H   0  0  0  0  0  0  0  0  0  0  0  0
  1  2  1  0  0  0  0
  2  3  1  0  0  0  0
  3  4  2  0  0  0  0
  4  5  2  0  0  0  0
  4  6  2  0  0  0  0
  6  7  1  0  0  0  0
  7  8  1  0  0  0  0
  4  9  1  0  0  0  0
  9 10  1  0  0  0  0
 10 11  1  0  0  0  0
 11 12  1  0  0  0  0
 12 13  2  0  0  0  0
 12 14  2  0  0  0  0
 14 15  1  0  0  0  0
 15 16  1  0  0  0  0
 12 17  2  0  0  0  0
 17 18  1  0  0  0  0
 18 19  1  0  0  0  0
  1 20  1  0  0  0  0
  1 21  1  0  0  0  0
  1 22  1  0  0  0  0
  2 23  1  0  0  0  0
  2 24  1  0  0  0  0
  7 25  1  0  0  0  0
  7 26  1  0  0  0  0
  8 27  1  0  0  0  0
  8 28  1  0  0  0  0
  8 29  1  0  0  0  0
 10 30  1  0  0  0  0
 10 31  1  0  0  0  0
 15 32  1  0  0  0  0
 15 33  1  0  0  0  0
 16 34  1  0  0  0  0
 16 35  1  0  0  0  0
 16 36  1  0  0  0  0
 18 37  1  0  0  0  0
 18 38  1  0  0  0  0
 19 39  1  0  0  0  0
 19 40  1  0  0  0  0
 19 41  1  0  0  0  0
M  END
