 xtb: 6.7.1 (edcfbbe)
          04092507313D

 38 37  0     0  0            999 V2000
    2.8577   -3.2768    1.1381 C   0  0  0  0  0  0  0  0  0  0  0  0
    3.0098   -1.7688    1.2396 C   0  0  0  0  0  0  0  0  0  0  0  0
    2.7524   -1.1667   -0.0454 O   0  0  0  0  0  0  0  0  0  0  0  0
    1.6829   -0.4471   -0.2347 C   0  0  0  0  0  0  0  0  0  0  0  0
    0.8612   -0.1639    0.6274 O   0  0  0  0  0  0  0  0  0  0  0  0
    1.5505    0.0588   -1.6493 C   0  0  0  0  0  0  0  0  0  0  0  0
    0.3903    1.0415   -1.7027 C   0  0  0  0  0  0  0  0  0  0  0  0
    0.3849    1.5853   -2.6511 H   0  0  0  0  0  0  0  0  0  0  0  0
    0.4436    2.0510   -0.5635 C   0  0  0  0  0  0  0  0  0  0  0  0
   -0.5274    2.4660    0.0231 O   0  0  0  0  0  0  0  0  0  0  0  0
    1.6855    2.4393   -0.3412 O   0  0  0  0  0  0  0  0  0  0  0  0
    1.9120    3.4455    0.6668 C   0  0  0  0  0  0  0  0  0  0  0  0
    1.7396    4.8413    0.0907 C   0  0  0  0  0  0  0  0  0  0  0  0
   -1.2491    0.2363   -1.7039 S   0  0  0  0  0  0  0  0  0  0  0  0
   -1.6138   -0.7936    0.1121 P   0  0  0  0  0  0  0  0  0  0  0  0
   -0.7966   -2.5420    0.5022 S   0  0  0  0  0  0  0  0  0  0  0  0
   -1.7961    0.2349    1.3024 O   0  0  0  0  0  0  0  0  0  0  0  0
   -1.1621    0.1404    2.5753 C   0  0  0  0  0  0  0  0  0  0  0  0
   -3.1870   -0.9970   -0.1473 O   0  0  0  0  0  0  0  0  0  0  0  0
   -3.6798   -1.9302   -1.1113 C   0  0  0  0  0  0  0  0  0  0  0  0
    1.8262   -3.5350    0.9053 H   0  0  0  0  0  0  0  0  0  0  0  0
    3.5047   -3.6642    0.3570 H   0  0  0  0  0  0  0  0  0  0  0  0
    3.1275   -3.7277    2.0871 H   0  0  0  0  0  0  0  0  0  0  0  0
    4.0358   -1.4901    1.4863 H   0  0  0  0  0  0  0  0  0  0  0  0
    2.3154   -1.3499    1.9724 H   0  0  0  0  0  0  0  0  0  0  0  0
    1.3737   -0.7848   -2.3190 H   0  0  0  0  0  0  0  0  0  0  0  0
    2.4838    0.5427   -1.9396 H   0  0  0  0  0  0  0  0  0  0  0  0
    1.2143    3.2754    1.4919 H   0  0  0  0  0  0  0  0  0  0  0  0
    2.9372    3.2721    0.9946 H   0  0  0  0  0  0  0  0  0  0  0  0
    0.7098    4.9907   -0.2258 H   0  0  0  0  0  0  0  0  0  0  0  0
    1.9831    5.5741    0.8528 H   0  0  0  0  0  0  0  0  0  0  0  0
    2.3980    4.9776   -0.7626 H   0  0  0  0  0  0  0  0  0  0  0  0
   -1.9292    0.3517    3.3172 H   0  0  0  0  0  0  0  0  0  0  0  0
   -0.3632    0.8791    2.6240 H   0  0  0  0  0  0  0  0  0  0  0  0
   -0.7499   -0.8598    2.7245 H   0  0  0  0  0  0  0  0  0  0  0  0
   -4.7310   -2.0706   -0.8719 H   0  0  0  0  0  0  0  0  0  0  0  0
   -3.1413   -2.8766   -1.0249 H   0  0  0  0  0  0  0  0  0  0  0  0
   -3.5655   -1.5267   -2.1172 H   0  0  0  0  0  0  0  0  0  0  0  0
  1  2  1  0  0  0  0
  2  3  1  0  0  0  0
  3  4  4  0  0  0  0
  4  5  2  0  0  0  0
  4  6  1  0  0  0  0
  6  7  1  0  0  0  0
  7  8  1  0  0  0  0
  7  9  1  0  0  0  0
  9 10  2  0  0  0  0
  9 11  1  0  0  0  0
 11 12  1  0  0  0  0
 12 13  1  0  0  0  0
  7 14  1  0  0  0  0
 14 15  1  0  0  0  0
 15 16  2  0  0  0  0
 15 17  2  0  0  0  0
 17 18  1  0  0  0  0
 15 19  1  0  0  0  0
 19 20  1  0  0  0  0
  1 21  1  0  0  0  0
  1 22  1  0  0  0  0
  1 23  1  0  0  0  0
  2 24  1  0  0  0  0
  2 25  1  0  0  0  0
  6 26  1  0  0  0  0
  6 27  1  0  0  0  0
 12 28  1  0  0  0  0
 12 29  1  0  0  0  0
 13 30  1  0  0  0  0
 13 31  1  0  0  0  0
 13 32  1  0  0  0  0
 18 33  1  0  0  0  0
 18 34  1  0  0  0  0
 18 35  1  0  0  0  0
 20 36  1  0  0  0  0
 20 37  1  0  0  0  0
 20 38  1  0  0  0  0
M  END
