 xtb: 6.7.1 (edcfbbe)
          04092505213D

 41 40  0     0  0            999 V2000
    4.1186   -1.5519   -1.8782 C   0  0  0  0  0  0  0  0  0  0  0  0
    4.6554   -0.5481   -0.8787 C   0  0  0  0  0  0  0  0  0  0  0  0
    3.6574    0.4124   -0.4537 O   0  0  0  0  0  0  0  0  0  0  0  0
    2.4003    0.1291    0.4574 P   0  0  0  0  0  0  0  0  0  0  0  0
    1.8580    1.8124    1.2973 S   0  0  0  0  0  0  0  0  0  0  0  0
    2.9170   -1.0458    1.3905 O   0  0  0  0  0  0  0  0  0  0  0  0
    2.0731   -1.9169    2.1664 C   0  0  0  0  0  0  0  0  0  0  0  0
    1.0970   -1.1603    3.0426 C   0  0  0  0  0  0  0  0  0  0  0  0
    0.9322   -0.8438   -0.7657 S   0  0  0  0  0  0  0  0  0  0  0  0
    0.4376    0.6079   -1.7201 C   0  0  0  0  0  0  0  0  0  0  0  0
   -0.7630    1.6769   -0.8768 S   0  0  0  0  0  0  0  0  0  0  0  0
   -2.2847    0.2193   -0.7131 P   0  0  0  0  0  0  0  0  0  0  0  0
   -2.5404   -0.9757   -2.2374 S   0  0  0  0  0  0  0  0  0  0  0  0
   -3.5943    1.0644   -0.4279 O   0  0  0  0  0  0  0  0  0  0  0  0
   -3.6711    2.2894    0.3365 C   0  0  0  0  0  0  0  0  0  0  0  0
   -3.2083    2.1184    1.7682 C   0  0  0  0  0  0  0  0  0  0  0  0
   -1.8775   -0.5126    0.6498 O   0  0  0  0  0  0  0  0  0  0  0  0
   -2.1441   -1.9092    0.8712 C   0  0  0  0  0  0  0  0  0  0  0  0
   -3.6126   -2.1443    1.1599 C   0  0  0  0  0  0  0  0  0  0  0  0
    4.9426   -2.1594   -2.2399 H   0  0  0  0  0  0  0  0  0  0  0  0
    3.3795   -2.2008   -1.4142 H   0  0  0  0  0  0  0  0  0  0  0  0
    3.6584   -1.0425   -2.7213 H   0  0  0  0  0  0  0  0  0  0  0  0
    5.4289    0.0815   -1.3217 H   0  0  0  0  0  0  0  0  0  0  0  0
    5.0471   -1.0487    0.0079 H   0  0  0  0  0  0  0  0  0  0  0  0
    1.5431   -2.5786    1.4753 H   0  0  0  0  0  0  0  0  0  0  0  0
    2.7808   -2.4941    2.7643 H   0  0  0  0  0  0  0  0  0  0  0  0
    0.3882   -0.6074    2.4266 H   0  0  0  0  0  0  0  0  0  0  0  0
    0.5559   -1.8610    3.6708 H   0  0  0  0  0  0  0  0  0  0  0  0
    1.6261   -0.4484    3.6719 H   0  0  0  0  0  0  0  0  0  0  0  0
   -0.0103    0.2298   -2.6389 H   0  0  0  0  0  0  0  0  0  0  0  0
    1.3074    1.2295   -1.9244 H   0  0  0  0  0  0  0  0  0  0  0  0
   -3.0762    3.0511   -0.1750 H   0  0  0  0  0  0  0  0  0  0  0  0
   -4.7295    2.5501    0.2831 H   0  0  0  0  0  0  0  0  0  0  0  0
   -3.7678    1.3237    2.2546 H   0  0  0  0  0  0  0  0  0  0  0  0
   -2.1473    1.8762    1.7975 H   0  0  0  0  0  0  0  0  0  0  0  0
   -3.3676    3.0487    2.3046 H   0  0  0  0  0  0  0  0  0  0  0  0
   -1.8278   -2.4706   -0.0138 H   0  0  0  0  0  0  0  0  0  0  0  0
   -1.5156   -2.1730    1.7225 H   0  0  0  0  0  0  0  0  0  0  0  0
   -3.7821   -3.2017    1.3359 H   0  0  0  0  0  0  0  0  0  0  0  0
   -3.9228   -1.5781    2.0341 H   0  0  0  0  0  0  0  0  0  0  0  0
   -4.2079   -1.8263    0.3041 H   0  0  0  0  0  0  0  0  0  0  0  0
  1  2  1  0  0  0  0
  2  3  1  0  0  0  0
  3  4  2  0  0  0  0
  4  5  2  0  0  0  0
  4  6  2  0  0  0  0
  6  7  1  0  0  0  0
  7  8  1  0  0  0  0
  4  9  1  0  0  0  0
  9 10  1  0  0  0  0
 10 11  1  0  0  0  0
 11 12  1  0  0  0  0
 12 13  2  0  0  0  0
 12 14  2  0  0  0  0
 14 15  1  0  0  0  0
 15 16  1  0  0  0  0
 12 17  1  0  0  0  0
 17 18  1  0  0  0  0
 18 19  1  0  0  0  0
  1 20  1  0  0  0  0
  1 21  1  0  0  0  0
  1 22  1  0  0  0  0
  2 23  1  0  0  0  0
  2 24  1  0  0  0  0
  7 25  1  0  0  0  0
  7 26  1  0  0  0  0
  8 27  1  0  0  0  0
  8 28  1  0  0  0  0
  8 29  1  0  0  0  0
 10 30  1  0  0  0  0
 10 31  1  0  0  0  0
 15 32  1  0  0  0  0
 15 33  1  0  0  0  0
 16 34  1  0  0  0  0
 16 35  1  0  0  0  0
 16 36  1  0  0  0  0
 18 37  1  0  0  0  0
 18 38  1  0  0  0  0
 19 39  1  0  0  0  0
 19 40  1  0  0  0  0
 19 41  1  0  0  0  0
M  END
