 xtb: 6.7.1 (edcfbbe)
          04092507313D

 38 37  0     0  0            999 V2000
    5.2962   -2.2845   -0.8193 C   0  0  0  0  0  0  0  0  0  0  0  0
    4.6137   -1.1812   -0.0262 C   0  0  0  0  0  0  0  0  0  0  0  0
    3.1871   -1.3783    0.0099 O   0  0  0  0  0  0  0  0  0  0  0  0
    2.4631   -0.8960   -0.9764 C   0  0  0  0  0  0  0  0  0  0  0  0
    2.9023   -0.2720   -1.9182 O   0  0  0  0  0  0  0  0  0  0  0  0
    0.9923   -1.2281   -0.7973 C   0  0  0  0  0  0  0  0  0  0  0  0
    0.1544   -0.0551   -1.2856 C   0  0  0  0  0  0  0  0  0  0  0  0
    0.4890    0.2282   -2.2911 H   0  0  0  0  0  0  0  0  0  0  0  0
    0.2767    1.1772   -0.4112 C   0  0  0  0  0  0  0  0  0  0  0  0
   -0.6013    2.0158   -0.3367 O   0  0  0  0  0  0  0  0  0  0  0  0
    1.4319    1.2474    0.1928 O   0  0  0  0  0  0  0  0  0  0  0  0
    1.6632    2.3676    1.0723 C   0  0  0  0  0  0  0  0  0  0  0  0
    3.0714    2.2474    1.6170 C   0  0  0  0  0  0  0  0  0  0  0  0
   -1.6109   -0.4515   -1.4673 S   0  0  0  0  0  0  0  0  0  0  0  0
   -2.3131   -0.0180    0.4919 P   0  0  0  0  0  0  0  0  0  0  0  0
   -1.0490   -0.1882    1.9757 S   0  0  0  0  0  0  0  0  0  0  0  0
   -3.1028    1.3466    0.5168 O   0  0  0  0  0  0  0  0  0  0  0  0
   -4.0143    1.7448   -0.5258 C   0  0  0  0  0  0  0  0  0  0  0  0
   -3.5465   -1.0374    0.5847 O   0  0  0  0  0  0  0  0  0  0  0  0
   -3.3417   -2.4524    0.6692 C   0  0  0  0  0  0  0  0  0  0  0  0
    4.9855   -2.2433   -1.8607 H   0  0  0  0  0  0  0  0  0  0  0  0
    6.3716   -2.1509   -0.7672 H   0  0  0  0  0  0  0  0  0  0  0  0
    5.0351   -3.2559   -0.4090 H   0  0  0  0  0  0  0  0  0  0  0  0
    4.8183   -0.2024   -0.4689 H   0  0  0  0  0  0  0  0  0  0  0  0
    4.9181   -1.1976    1.0203 H   0  0  0  0  0  0  0  0  0  0  0  0
    0.8009   -1.4530    0.2526 H   0  0  0  0  0  0  0  0  0  0  0  0
    0.7640   -2.1074   -1.4029 H   0  0  0  0  0  0  0  0  0  0  0  0
    1.5159    3.2894    0.5015 H   0  0  0  0  0  0  0  0  0  0  0  0
    0.9116    2.3242    1.8676 H   0  0  0  0  0  0  0  0  0  0  0  0
    3.7888    2.2711    0.8018 H   0  0  0  0  0  0  0  0  0  0  0  0
    3.2648    3.0751    2.2907 H   0  0  0  0  0  0  0  0  0  0  0  0
    3.1774    1.3111    2.1570 H   0  0  0  0  0  0  0  0  0  0  0  0
   -3.4475    2.0074   -1.4187 H   0  0  0  0  0  0  0  0  0  0  0  0
   -4.5294    2.6166   -0.1314 H   0  0  0  0  0  0  0  0  0  0  0  0
   -4.7161    0.9408   -0.7402 H   0  0  0  0  0  0  0  0  0  0  0  0
   -3.0117   -2.8364   -0.2956 H   0  0  0  0  0  0  0  0  0  0  0  0
   -4.3076   -2.8708    0.9399 H   0  0  0  0  0  0  0  0  0  0  0  0
   -2.6003   -2.6778    1.4372 H   0  0  0  0  0  0  0  0  0  0  0  0
  1  2  1  0  0  0  0
  2  3  1  0  0  0  0
  3  4  1  0  0  0  0
  4  5  2  0  0  0  0
  4  6  1  0  0  0  0
  6  7  1  0  0  0  0
  7  8  1  0  0  0  0
  7  9  1  0  0  0  0
  9 10  2  0  0  0  0
  9 11  4  0  0  0  0
 11 12  1  0  0  0  0
 12 13  1  0  0  0  0
  7 14  1  0  0  0  0
 14 15  1  0  0  0  0
 15 16  2  0  0  0  0
 15 17  2  0  0  0  0
 17 18  1  0  0  0  0
 15 19  1  0  0  0  0
 19 20  1  0  0  0  0
  1 21  1  0  0  0  0
  1 22  1  0  0  0  0
  1 23  1  0  0  0  0
  2 24  1  0  0  0  0
  2 25  1  0  0  0  0
  6 26  1  0  0  0  0
  6 27  1  0  0  0  0
 12 28  1  0  0  0  0
 12 29  1  0  0  0  0
 13 30  1  0  0  0  0
 13 31  1  0  0  0  0
 13 32  1  0  0  0  0
 18 33  1  0  0  0  0
 18 34  1  0  0  0  0
 18 35  1  0  0  0  0
 20 36  1  0  0  0  0
 20 37  1  0  0  0  0
 20 38  1  0  0  0  0
M  END
