 xtb: 6.7.1 (edcfbbe)
          04092507313D

 38 37  0     0  0            999 V2000
    3.2614   -2.3525    0.8153 C   0  0  0  0  0  0  0  0  0  0  0  0
    2.5172   -2.6202   -0.4817 C   0  0  0  0  0  0  0  0  0  0  0  0
    1.8465   -1.4174   -0.9078 O   0  0  0  0  0  0  0  0  0  0  0  0
    2.0991   -0.9189   -2.1060 C   0  0  0  0  0  0  0  0  0  0  0  0
    2.8619   -1.4128   -2.9054 O   0  0  0  0  0  0  0  0  0  0  0  0
    1.3348    0.3615   -2.3723 C   0  0  0  0  0  0  0  0  0  0  0  0
    0.3248    0.7089   -1.2879 C   0  0  0  0  0  0  0  0  0  0  0  0
   -0.0995    1.7014   -1.4735 H   0  0  0  0  0  0  0  0  0  0  0  0
    0.9374    0.7253    0.0979 C   0  0  0  0  0  0  0  0  0  0  0  0
    0.3759    0.2343    1.0589 O   0  0  0  0  0  0  0  0  0  0  0  0
    2.0791    1.3503    0.1309 O   0  0  0  0  0  0  0  0  0  0  0  0
    2.7018    1.5641    1.4167 C   0  0  0  0  0  0  0  0  0  0  0  0
    2.1555    2.8254    2.0649 C   0  0  0  0  0  0  0  0  0  0  0  0
   -1.0607   -0.4772   -1.2544 S   0  0  0  0  0  0  0  0  0  0  0  0
   -2.0653    0.2904    0.4704 P   0  0  0  0  0  0  0  0  0  0  0  0
   -1.8082    2.1552    1.0256 S   0  0  0  0  0  0  0  0  0  0  0  0
   -3.5790    0.2446   -0.0291 O   0  0  0  0  0  0  0  0  0  0  0  0
   -4.2148   -0.9374   -0.5392 C   0  0  0  0  0  0  0  0  0  0  0  0
   -2.1759   -0.8795    1.5515 O   0  0  0  0  0  0  0  0  0  0  0  0
   -1.2096   -1.4987    2.3973 C   0  0  0  0  0  0  0  0  0  0  0  0
    2.5723   -1.9794    1.5691 H   0  0  0  0  0  0  0  0  0  0  0  0
    3.7074   -3.2763    1.1682 H   0  0  0  0  0  0  0  0  0  0  0  0
    4.0458   -1.6167    0.6574 H   0  0  0  0  0  0  0  0  0  0  0  0
    1.7355   -3.3704   -0.3412 H   0  0  0  0  0  0  0  0  0  0  0  0
    3.1946   -2.9372   -1.2794 H   0  0  0  0  0  0  0  0  0  0  0  0
    0.8370    0.2612   -3.3381 H   0  0  0  0  0  0  0  0  0  0  0  0
    2.0679    1.1676   -2.4549 H   0  0  0  0  0  0  0  0  0  0  0  0
    2.5168    0.6900    2.0455 H   0  0  0  0  0  0  0  0  0  0  0  0
    3.7640    1.6577    1.1911 H   0  0  0  0  0  0  0  0  0  0  0  0
    2.3484    3.6879    1.4333 H   0  0  0  0  0  0  0  0  0  0  0  0
    1.0796    2.7395    2.2115 H   0  0  0  0  0  0  0  0  0  0  0  0
    2.6327    2.9719    3.0280 H   0  0  0  0  0  0  0  0  0  0  0  0
   -4.3951   -1.6399    0.2723 H   0  0  0  0  0  0  0  0  0  0  0  0
   -3.5892   -1.3987   -1.3045 H   0  0  0  0  0  0  0  0  0  0  0  0
   -5.1532   -0.5954   -0.9684 H   0  0  0  0  0  0  0  0  0  0  0  0
   -0.7413   -0.7612    3.0461 H   0  0  0  0  0  0  0  0  0  0  0  0
   -0.4494   -1.9965    1.7975 H   0  0  0  0  0  0  0  0  0  0  0  0
   -1.7751   -2.2226    2.9809 H   0  0  0  0  0  0  0  0  0  0  0  0
  1  2  1  0  0  0  0
  2  3  1  0  0  0  0
  3  4  1  0  0  0  0
  4  5  2  0  0  0  0
  4  6  1  0  0  0  0
  6  7  1  0  0  0  0
  7  8  1  0  0  0  0
  7  9  1  0  0  0  0
  9 10  2  0  0  0  0
  9 11  4  0  0  0  0
 11 12  1  0  0  0  0
 12 13  1  0  0  0  0
  7 14  1  0  0  0  0
 14 15  1  0  0  0  0
 15 16  2  0  0  0  0
 15 17  1  0  0  0  0
 17 18  1  0  0  0  0
 15 19  2  0  0  0  0
 19 20  1  0  0  0  0
  1 21  1  0  0  0  0
  1 22  1  0  0  0  0
  1 23  1  0  0  0  0
  2 24  1  0  0  0  0
  2 25  1  0  0  0  0
  6 26  1  0  0  0  0
  6 27  1  0  0  0  0
 12 28  1  0  0  0  0
 12 29  1  0  0  0  0
 13 30  1  0  0  0  0
 13 31  1  0  0  0  0
 13 32  1  0  0  0  0
 18 33  1  0  0  0  0
 18 34  1  0  0  0  0
 18 35  1  0  0  0  0
 20 36  1  0  0  0  0
 20 37  1  0  0  0  0
 20 38  1  0  0  0  0
M  END
