 xtb: 6.7.1 (edcfbbe)
          04092505203D

 41 40  0     0  0            999 V2000
    4.4527   -0.9012   -2.2716 C   0  0  0  0  0  0  0  0  0  0  0  0
    3.1402   -1.6213   -2.0467 C   0  0  0  0  0  0  0  0  0  0  0  0
    2.6633   -1.4463   -0.6959 O   0  0  0  0  0  0  0  0  0  0  0  0
    2.1015   -0.0619   -0.1754 P   0  0  0  0  0  0  0  0  0  0  0  0
    1.2734    1.0750   -1.5486 S   0  0  0  0  0  0  0  0  0  0  0  0
    3.3758    0.6101    0.4988 O   0  0  0  0  0  0  0  0  0  0  0  0
    3.4140    2.0004    0.8556 C   0  0  0  0  0  0  0  0  0  0  0  0
    2.4777    2.3123    2.0054 C   0  0  0  0  0  0  0  0  0  0  0  0
    1.0491   -0.7981    1.5098 S   0  0  0  0  0  0  0  0  0  0  0  0
    0.0733   -2.1095    0.7152 C   0  0  0  0  0  0  0  0  0  0  0  0
   -0.9073   -1.5504   -0.7065 S   0  0  0  0  0  0  0  0  0  0  0  0
   -2.0944   -0.0707    0.2352 P   0  0  0  0  0  0  0  0  0  0  0  0
   -1.3762    1.6518    0.8524 S   0  0  0  0  0  0  0  0  0  0  0  0
   -2.6983   -0.9894    1.3743 O   0  0  0  0  0  0  0  0  0  0  0  0
   -3.3256   -0.4398    2.5516 C   0  0  0  0  0  0  0  0  0  0  0  0
   -4.6623    0.1930    2.2276 C   0  0  0  0  0  0  0  0  0  0  0  0
   -3.3073    0.0807   -0.7812 O   0  0  0  0  0  0  0  0  0  0  0  0
   -3.3275    1.0612   -1.8299 C   0  0  0  0  0  0  0  0  0  0  0  0
   -2.3714    0.7044   -2.9499 C   0  0  0  0  0  0  0  0  0  0  0  0
    4.8269   -1.1350   -3.2633 H   0  0  0  0  0  0  0  0  0  0  0  0
    4.3004    0.1747   -2.1950 H   0  0  0  0  0  0  0  0  0  0  0  0
    5.1817   -1.2063   -1.5255 H   0  0  0  0  0  0  0  0  0  0  0  0
    3.2466   -2.7019   -2.1492 H   0  0  0  0  0  0  0  0  0  0  0  0
    2.3727   -1.2536   -2.7354 H   0  0  0  0  0  0  0  0  0  0  0  0
    4.4567    2.1754    1.1240 H   0  0  0  0  0  0  0  0  0  0  0  0
    3.1492    2.5943   -0.0259 H   0  0  0  0  0  0  0  0  0  0  0  0
    2.6098    3.3448    2.3123 H   0  0  0  0  0  0  0  0  0  0  0  0
    1.4413    2.1730    1.6938 H   0  0  0  0  0  0  0  0  0  0  0  0
    2.6792    1.6541    2.8470 H   0  0  0  0  0  0  0  0  0  0  0  0
   -0.5874   -2.5027    1.4845 H   0  0  0  0  0  0  0  0  0  0  0  0
    0.7404   -2.8802    0.3359 H   0  0  0  0  0  0  0  0  0  0  0  0
   -3.4339   -1.2981    3.2158 H   0  0  0  0  0  0  0  0  0  0  0  0
   -2.6461    0.2949    2.9955 H   0  0  0  0  0  0  0  0  0  0  0  0
   -5.2943   -0.5149    1.6978 H   0  0  0  0  0  0  0  0  0  0  0  0
   -5.1498    0.4974    3.1483 H   0  0  0  0  0  0  0  0  0  0  0  0
   -4.5130    1.0699    1.5990 H   0  0  0  0  0  0  0  0  0  0  0  0
   -4.3641    1.0627   -2.1698 H   0  0  0  0  0  0  0  0  0  0  0  0
   -3.0721    2.0368   -1.4022 H   0  0  0  0  0  0  0  0  0  0  0  0
   -2.5586   -0.3083   -3.2981 H   0  0  0  0  0  0  0  0  0  0  0  0
   -2.5000    1.4006   -3.7722 H   0  0  0  0  0  0  0  0  0  0  0  0
   -1.3408    0.7695   -2.5994 H   0  0  0  0  0  0  0  0  0  0  0  0
  1  2  1  0  0  0  0
  2  3  1  0  0  0  0
  3  4  2  0  0  0  0
  4  5  2  0  0  0  0
  4  6  2  0  0  0  0
  6  7  1  0  0  0  0
  7  8  1  0  0  0  0
  4  9  1  0  0  0  0
  9 10  1  0  0  0  0
 10 11  1  0  0  0  0
 11 12  1  0  0  0  0
 12 13  2  0  0  0  0
 12 14  2  0  0  0  0
 14 15  1  0  0  0  0
 15 16  1  0  0  0  0
 12 17  2  0  0  0  0
 17 18  1  0  0  0  0
 18 19  1  0  0  0  0
  1 20  1  0  0  0  0
  1 21  1  0  0  0  0
  1 22  1  0  0  0  0
  2 23  1  0  0  0  0
  2 24  1  0  0  0  0
  7 25  1  0  0  0  0
  7 26  1  0  0  0  0
  8 27  1  0  0  0  0
  8 28  1  0  0  0  0
  8 29  1  0  0  0  0
 10 30  1  0  0  0  0
 10 31  1  0  0  0  0
 15 32  1  0  0  0  0
 15 33  1  0  0  0  0
 16 34  1  0  0  0  0
 16 35  1  0  0  0  0
 16 36  1  0  0  0  0
 18 37  1  0  0  0  0
 18 38  1  0  0  0  0
 19 39  1  0  0  0  0
 19 40  1  0  0  0  0
 19 41  1  0  0  0  0
M  END
