 xtb: 6.7.1 (edcfbbe)
          04092505213D

 41 40  0     0  0            999 V2000
    5.1654   -1.6597   -2.5758 C   0  0  0  0  0  0  0  0  0  0  0  0
    4.0126   -0.8109   -2.0794 C   0  0  0  0  0  0  0  0  0  0  0  0
    3.7405   -1.1957   -0.7171 O   0  0  0  0  0  0  0  0  0  0  0  0
    2.7591   -0.3388    0.1801 P   0  0  0  0  0  0  0  0  0  0  0  0
    3.2285    1.5578    0.4044 S   0  0  0  0  0  0  0  0  0  0  0  0
    2.8828   -1.2475    1.4648 O   0  0  0  0  0  0  0  0  0  0  0  0
    2.5654   -0.7683    2.7842 C   0  0  0  0  0  0  0  0  0  0  0  0
    1.0690   -0.7238    3.0195 C   0  0  0  0  0  0  0  0  0  0  0  0
    0.8524   -0.7123   -0.7046 S   0  0  0  0  0  0  0  0  0  0  0  0
    0.1557    0.9652   -0.7032 C   0  0  0  0  0  0  0  0  0  0  0  0
   -1.0700    1.2369    0.5942 S   0  0  0  0  0  0  0  0  0  0  0  0
   -2.8144    0.5334   -0.4266 P   0  0  0  0  0  0  0  0  0  0  0  0
   -2.6233    0.4221   -2.3739 S   0  0  0  0  0  0  0  0  0  0  0  0
   -3.9904    1.5157   -0.0707 O   0  0  0  0  0  0  0  0  0  0  0  0
   -4.6768    1.5991    1.2029 C   0  0  0  0  0  0  0  0  0  0  0  0
   -3.7622    2.0324    2.3285 C   0  0  0  0  0  0  0  0  0  0  0  0
   -3.2560   -0.7773    0.3654 O   0  0  0  0  0  0  0  0  0  0  0  0
   -2.4173   -1.9191    0.6029 C   0  0  0  0  0  0  0  0  0  0  0  0
   -2.2106   -2.7532   -0.6450 C   0  0  0  0  0  0  0  0  0  0  0  0
    4.9009   -2.7113   -2.5169 H   0  0  0  0  0  0  0  0  0  0  0  0
    5.3835   -1.3988   -3.6062 H   0  0  0  0  0  0  0  0  0  0  0  0
    6.0463   -1.4841   -1.9651 H   0  0  0  0  0  0  0  0  0  0  0  0
    3.1103   -0.9776   -2.6761 H   0  0  0  0  0  0  0  0  0  0  0  0
    4.2629    0.2556   -2.1005 H   0  0  0  0  0  0  0  0  0  0  0  0
    3.0548   -1.4835    3.4470 H   0  0  0  0  0  0  0  0  0  0  0  0
    3.0105    0.2234    2.9169 H   0  0  0  0  0  0  0  0  0  0  0  0
    0.8764   -0.4820    4.0598 H   0  0  0  0  0  0  0  0  0  0  0  0
    0.6123    0.0424    2.3936 H   0  0  0  0  0  0  0  0  0  0  0  0
    0.6269   -1.6892    2.7863 H   0  0  0  0  0  0  0  0  0  0  0  0
   -0.3262    1.1163   -1.6705 H   0  0  0  0  0  0  0  0  0  0  0  0
    0.9645    1.6803   -0.5372 H   0  0  0  0  0  0  0  0  0  0  0  0
   -5.4579    2.3370    1.0134 H   0  0  0  0  0  0  0  0  0  0  0  0
   -5.1262    0.6269    1.4122 H   0  0  0  0  0  0  0  0  0  0  0  0
   -3.2659    2.9663    2.0769 H   0  0  0  0  0  0  0  0  0  0  0  0
   -4.3515    2.1727    3.2294 H   0  0  0  0  0  0  0  0  0  0  0  0
   -3.0035    1.2750    2.5167 H   0  0  0  0  0  0  0  0  0  0  0  0
   -1.4574   -1.5751    1.0000 H   0  0  0  0  0  0  0  0  0  0  0  0
   -2.9542   -2.4796    1.3706 H   0  0  0  0  0  0  0  0  0  0  0  0
   -1.6523   -3.6479   -0.3895 H   0  0  0  0  0  0  0  0  0  0  0  0
   -3.1689   -3.0346   -1.0735 H   0  0  0  0  0  0  0  0  0  0  0  0
   -1.6487   -2.1908   -1.3886 H   0  0  0  0  0  0  0  0  0  0  0  0
  1  2  1  0  0  0  0
  2  3  1  0  0  0  0
  3  4  2  0  0  0  0
  4  5  2  0  0  0  0
  4  6  2  0  0  0  0
  6  7  1  0  0  0  0
  7  8  1  0  0  0  0
  4  9  1  0  0  0  0
  9 10  1  0  0  0  0
 10 11  1  0  0  0  0
 11 12  1  0  0  0  0
 12 13  2  0  0  0  0
 12 14  2  0  0  0  0
 14 15  1  0  0  0  0
 15 16  1  0  0  0  0
 12 17  2  0  0  0  0
 17 18  1  0  0  0  0
 18 19  1  0  0  0  0
  1 20  1  0  0  0  0
  1 21  1  0  0  0  0
  1 22  1  0  0  0  0
  2 23  1  0  0  0  0
  2 24  1  0  0  0  0
  7 25  1  0  0  0  0
  7 26  1  0  0  0  0
  8 27  1  0  0  0  0
  8 28  1  0  0  0  0
  8 29  1  0  0  0  0
 10 30  1  0  0  0  0
 10 31  1  0  0  0  0
 15 32  1  0  0  0  0
 15 33  1  0  0  0  0
 16 34  1  0  0  0  0
 16 35  1  0  0  0  0
 16 36  1  0  0  0  0
 18 37  1  0  0  0  0
 18 38  1  0  0  0  0
 19 39  1  0  0  0  0
 19 40  1  0  0  0  0
 19 41  1  0  0  0  0
M  END
