 xtb: 6.7.1 (edcfbbe)
          04092507313D

 38 37  0     0  0            999 V2000
    3.6854   -2.3228    1.3546 C   0  0  0  0  0  0  0  0  0  0  0  0
    2.8962   -2.8716    0.1774 C   0  0  0  0  0  0  0  0  0  0  0  0
    2.7976   -1.8855   -0.8716 O   0  0  0  0  0  0  0  0  0  0  0  0
    1.8236   -1.0164   -0.8315 C   0  0  0  0  0  0  0  0  0  0  0  0
    0.9662   -0.9981    0.0414 O   0  0  0  0  0  0  0  0  0  0  0  0
    1.8439   -0.0438   -1.9785 C   0  0  0  0  0  0  0  0  0  0  0  0
    0.7652    1.0093   -1.7931 C   0  0  0  0  0  0  0  0  0  0  0  0
    0.7177    1.6837   -2.6510 H   0  0  0  0  0  0  0  0  0  0  0  0
    0.9506    1.8370   -0.5311 C   0  0  0  0  0  0  0  0  0  0  0  0
    1.8546    1.6598    0.2570 O   0  0  0  0  0  0  0  0  0  0  0  0
    0.0344    2.7703   -0.4413 O   0  0  0  0  0  0  0  0  0  0  0  0
    0.0164    3.6450    0.7039 C   0  0  0  0  0  0  0  0  0  0  0  0
   -1.4235    3.8367    1.1423 C   0  0  0  0  0  0  0  0  0  0  0  0
   -0.9293    0.2856   -1.7915 S   0  0  0  0  0  0  0  0  0  0  0  0
   -1.3461   -0.5140    0.1238 P   0  0  0  0  0  0  0  0  0  0  0  0
   -1.4249   -2.4360    0.5523 S   0  0  0  0  0  0  0  0  0  0  0  0
   -0.8612    0.4463    1.3171 O   0  0  0  0  0  0  0  0  0  0  0  0
    0.0183    0.0626    2.3706 C   0  0  0  0  0  0  0  0  0  0  0  0
   -2.8511    0.0515   -0.0424 O   0  0  0  0  0  0  0  0  0  0  0  0
   -3.9140   -0.3155    0.8365 C   0  0  0  0  0  0  0  0  0  0  0  0
    3.7717   -3.0899    2.1167 H   0  0  0  0  0  0  0  0  0  0  0  0
    4.6777   -2.0209    1.0319 H   0  0  0  0  0  0  0  0  0  0  0  0
    3.1746   -1.4606    1.7785 H   0  0  0  0  0  0  0  0  0  0  0  0
    1.8869   -3.1642    0.4822 H   0  0  0  0  0  0  0  0  0  0  0  0
    3.4083   -3.7122   -0.2901 H   0  0  0  0  0  0  0  0  0  0  0  0
    1.6791   -0.5910   -2.9080 H   0  0  0  0  0  0  0  0  0  0  0  0
    2.8316    0.4192   -2.0176 H   0  0  0  0  0  0  0  0  0  0  0  0
    0.6290    3.2008    1.4935 H   0  0  0  0  0  0  0  0  0  0  0  0
    0.4632    4.5904    0.3849 H   0  0  0  0  0  0  0  0  0  0  0  0
   -2.0046    4.2643    0.3308 H   0  0  0  0  0  0  0  0  0  0  0  0
   -1.8598    2.8782    1.4130 H   0  0  0  0  0  0  0  0  0  0  0  0
   -1.4540    4.5007    1.9998 H   0  0  0  0  0  0  0  0  0  0  0  0
    1.0255    0.4133    2.1445 H   0  0  0  0  0  0  0  0  0  0  0  0
    0.0209   -1.0229    2.4815 H   0  0  0  0  0  0  0  0  0  0  0  0
   -0.3620    0.5377    3.2726 H   0  0  0  0  0  0  0  0  0  0  0  0
   -3.8344    0.2373    1.7726 H   0  0  0  0  0  0  0  0  0  0  0  0
   -3.8811   -1.3886    1.0395 H   0  0  0  0  0  0  0  0  0  0  0  0
   -4.8321   -0.0560    0.3154 H   0  0  0  0  0  0  0  0  0  0  0  0
  1  2  1  0  0  0  0
  2  3  1  0  0  0  0
  3  4  4  0  0  0  0
  4  5  2  0  0  0  0
  4  6  1  0  0  0  0
  6  7  1  0  0  0  0
  7  8  1  0  0  0  0
  7  9  1  0  0  0  0
  9 10  2  0  0  0  0
  9 11  4  0  0  0  0
 11 12  1  0  0  0  0
 12 13  1  0  0  0  0
  7 14  1  0  0  0  0
 14 15  1  0  0  0  0
 15 16  2  0  0  0  0
 15 17  1  0  0  0  0
 17 18  1  0  0  0  0
 15 19  1  0  0  0  0
 19 20  1  0  0  0  0
  1 21  1  0  0  0  0
  1 22  1  0  0  0  0
  1 23  1  0  0  0  0
  2 24  1  0  0  0  0
  2 25  1  0  0  0  0
  6 26  1  0  0  0  0
  6 27  1  0  0  0  0
 12 28  1  0  0  0  0
 12 29  1  0  0  0  0
 13 30  1  0  0  0  0
 13 31  1  0  0  0  0
 13 32  1  0  0  0  0
 18 33  1  0  0  0  0
 18 34  1  0  0  0  0
 18 35  1  0  0  0  0
 20 36  1  0  0  0  0
 20 37  1  0  0  0  0
 20 38  1  0  0  0  0
M  END
