 xtb: 6.7.1 (edcfbbe)
          04032519423D

 20 20  0     0  0            999 V2000
    0.6180    1.6986    0.0148 C   0  0  0  0  0  0  0  0  0  0  0  0
    1.4002    0.4116   -0.2566 C   0  0  0  0  0  0  0  0  0  0  0  0
    1.6024    0.3403   -1.3398 H   0  0  0  0  0  0  0  0  0  0  0  0
    0.5491   -0.7986    0.1680 C   0  0  0  0  0  0  0  0  0  0  0  0
    0.3909   -0.7608    1.2512 H   0  0  0  0  0  0  0  0  0  0  0  0
   -0.8131   -0.7442   -0.5377 C   0  0  0  0  0  0  0  0  0  0  0  0
   -0.6601   -0.8692   -1.6176 H   0  0  0  0  0  0  0  0  0  0  0  0
   -1.4651    0.6405   -0.2883 C   0  0  0  0  0  0  0  0  0  0  0  0
   -2.3521    0.7614   -0.9326 H   0  0  0  0  0  0  0  0  0  0  0  0
   -0.6243    1.6865   -0.6718 O   0  0  0  0  0  0  0  0  0  0  0  0
   -1.8340    0.7641    1.0547 O   0  0  0  0  0  0  0  0  0  0  0  0
   -1.6332   -1.7546   -0.0031 O   0  0  0  0  0  0  0  0  0  0  0  0
    1.2391   -2.0022   -0.0579 O   0  0  0  0  0  0  0  0  0  0  0  0
    2.6108    0.4553    0.4542 O   0  0  0  0  0  0  0  0  0  0  0  0
    1.1580    2.5653   -0.3633 H   0  0  0  0  0  0  0  0  0  0  0  0
    0.4588    1.8079    1.0929 H   0  0  0  0  0  0  0  0  0  0  0  0
   -2.0727   -0.1206    1.3834 H   0  0  0  0  0  0  0  0  0  0  0  0
   -2.3550   -1.9662   -0.6120 H   0  0  0  0  0  0  0  0  0  0  0  0
    1.2750   -2.1932   -1.0068 H   0  0  0  0  0  0  0  0  0  0  0  0
    2.9439   -0.4522    0.5460 H   0  0  0  0  0  0  0  0  0  0  0  0
  1  2  1  0  0  0  0
  2  3  1  0  0  0  0
  2  4  1  0  0  0  0
  4  5  1  0  0  0  0
  4  6  1  0  0  0  0
  6  7  1  0  0  0  0
  6  8  1  0  0  0  0
  8  9  1  0  0  0  0
  1 10  1  0  0  0  0
  8 10  1  0  0  0  0
  8 11  1  0  0  0  0
  6 12  1  0  0  0  0
  4 13  1  0  0  0  0
  2 14  1  0  0  0  0
  1 15  1  0  0  0  0
  1 16  1  0  0  0  0
 11 17  1  0  0  0  0
 12 18  1  0  0  0  0
 13 19  1  0  0  0  0
 14 20  1  0  0  0  0
M  END
