 xtb: 6.7.1 (edcfbbe)
          04092507313D

 38 37  0     0  0            999 V2000
    4.7613   -0.9618   -2.9495 C   0  0  0  0  0  0  0  0  0  0  0  0
    4.2688   -0.4814   -1.5964 C   0  0  0  0  0  0  0  0  0  0  0  0
    2.9635   -1.0402   -1.3523 O   0  0  0  0  0  0  0  0  0  0  0  0
    2.6661   -1.4820   -0.1506 C   0  0  0  0  0  0  0  0  0  0  0  0
    3.4210   -1.4865    0.7964 O   0  0  0  0  0  0  0  0  0  0  0  0
    1.2346   -1.9900   -0.0930 C   0  0  0  0  0  0  0  0  0  0  0  0
    0.2775   -0.8160   -0.3128 C   0  0  0  0  0  0  0  0  0  0  0  0
    0.4330   -0.3770   -1.3010 H   0  0  0  0  0  0  0  0  0  0  0  0
    0.5118    0.2377    0.7543 C   0  0  0  0  0  0  0  0  0  0  0  0
   -0.2106    0.3769    1.7189 O   0  0  0  0  0  0  0  0  0  0  0  0
    1.5993    0.9237    0.5094 O   0  0  0  0  0  0  0  0  0  0  0  0
    1.9991    1.9256    1.4685 C   0  0  0  0  0  0  0  0  0  0  0  0
    2.6618    1.2948    2.6820 C   0  0  0  0  0  0  0  0  0  0  0  0
   -1.4464   -1.3908   -0.1750 S   0  0  0  0  0  0  0  0  0  0  0  0
   -2.3795    0.5097   -0.0411 P   0  0  0  0  0  0  0  0  0  0  0  0
   -1.3861    2.0107   -0.8116 S   0  0  0  0  0  0  0  0  0  0  0  0
   -3.7792    0.2219   -0.7659 O   0  0  0  0  0  0  0  0  0  0  0  0
   -3.8519   -0.0368   -2.1728 C   0  0  0  0  0  0  0  0  0  0  0  0
   -2.8937    0.7868    1.4230 O   0  0  0  0  0  0  0  0  0  0  0  0
   -3.6072   -0.1988    2.1962 C   0  0  0  0  0  0  0  0  0  0  0  0
    5.7243   -0.5087   -3.1602 H   0  0  0  0  0  0  0  0  0  0  0  0
    4.8687   -2.0429   -2.9509 H   0  0  0  0  0  0  0  0  0  0  0  0
    4.0545   -0.6773   -3.7231 H   0  0  0  0  0  0  0  0  0  0  0  0
    4.1551    0.6060   -1.5793 H   0  0  0  0  0  0  0  0  0  0  0  0
    4.9363   -0.7884   -0.7861 H   0  0  0  0  0  0  0  0  0  0  0  0
    1.0588   -2.4456    0.8821 H   0  0  0  0  0  0  0  0  0  0  0  0
    1.0766   -2.7273   -0.8801 H   0  0  0  0  0  0  0  0  0  0  0  0
    2.6916    2.5574    0.9128 H   0  0  0  0  0  0  0  0  0  0  0  0
    1.1112    2.4974    1.7545 H   0  0  0  0  0  0  0  0  0  0  0  0
    3.0894    2.0750    3.3023 H   0  0  0  0  0  0  0  0  0  0  0  0
    1.9304    0.7388    3.2639 H   0  0  0  0  0  0  0  0  0  0  0  0
    3.4458    0.6109    2.3647 H   0  0  0  0  0  0  0  0  0  0  0  0
   -4.9076    0.0187   -2.4252 H   0  0  0  0  0  0  0  0  0  0  0  0
   -3.4551   -1.0289   -2.3870 H   0  0  0  0  0  0  0  0  0  0  0  0
   -3.2883    0.7192   -2.7217 H   0  0  0  0  0  0  0  0  0  0  0  0
   -4.5319   -0.4693    1.6898 H   0  0  0  0  0  0  0  0  0  0  0  0
   -3.8089    0.2842    3.1485 H   0  0  0  0  0  0  0  0  0  0  0  0
   -2.9797   -1.0784    2.3391 H   0  0  0  0  0  0  0  0  0  0  0  0
  1  2  1  0  0  0  0
  2  3  1  0  0  0  0
  3  4  4  0  0  0  0
  4  5  2  0  0  0  0
  4  6  1  0  0  0  0
  6  7  1  0  0  0  0
  7  8  1  0  0  0  0
  7  9  1  0  0  0  0
  9 10  2  0  0  0  0
  9 11  4  0  0  0  0
 11 12  1  0  0  0  0
 12 13  1  0  0  0  0
  7 14  1  0  0  0  0
 14 15  1  0  0  0  0
 15 16  2  0  0  0  0
 15 17  1  0  0  0  0
 17 18  1  0  0  0  0
 15 19  2  0  0  0  0
 19 20  1  0  0  0  0
  1 21  1  0  0  0  0
  1 22  1  0  0  0  0
  1 23  1  0  0  0  0
  2 24  1  0  0  0  0
  2 25  1  0  0  0  0
  6 26  1  0  0  0  0
  6 27  1  0  0  0  0
 12 28  1  0  0  0  0
 12 29  1  0  0  0  0
 13 30  1  0  0  0  0
 13 31  1  0  0  0  0
 13 32  1  0  0  0  0
 18 33  1  0  0  0  0
 18 34  1  0  0  0  0
 18 35  1  0  0  0  0
 20 36  1  0  0  0  0
 20 37  1  0  0  0  0
 20 38  1  0  0  0  0
M  END
