 xtb: 6.7.1 (edcfbbe)
          04092505203D

 41 40  0     0  0            999 V2000
    4.4219   -0.9437   -2.1480 C   0  0  0  0  0  0  0  0  0  0  0  0
    3.4569   -2.0214   -1.6984 C   0  0  0  0  0  0  0  0  0  0  0  0
    2.8696   -1.7453   -0.4134 O   0  0  0  0  0  0  0  0  0  0  0  0
    2.0985   -0.4175   -0.0179 P   0  0  0  0  0  0  0  0  0  0  0  0
    3.1557    1.1815    0.4109 S   0  0  0  0  0  0  0  0  0  0  0  0
    1.2491   -0.9950    1.1875 O   0  0  0  0  0  0  0  0  0  0  0  0
    1.3272   -0.4934    2.5312 C   0  0  0  0  0  0  0  0  0  0  0  0
    2.4311   -1.1968    3.2935 C   0  0  0  0  0  0  0  0  0  0  0  0
    0.6940   -0.2046   -1.5959 S   0  0  0  0  0  0  0  0  0  0  0  0
    0.2045    1.4950   -1.2212 C   0  0  0  0  0  0  0  0  0  0  0  0
   -0.5612    1.6783    0.4167 S   0  0  0  0  0  0  0  0  0  0  0  0
   -2.2078    0.4066    0.0778 P   0  0  0  0  0  0  0  0  0  0  0  0
   -2.9662    0.3276   -1.7312 S   0  0  0  0  0  0  0  0  0  0  0  0
   -3.2614    0.8035    1.2034 O   0  0  0  0  0  0  0  0  0  0  0  0
   -4.2819    1.7948    0.9917 C   0  0  0  0  0  0  0  0  0  0  0  0
   -3.7038    3.1905    0.8766 C   0  0  0  0  0  0  0  0  0  0  0  0
   -1.6308   -0.9388    0.6814 O   0  0  0  0  0  0  0  0  0  0  0  0
   -2.2194   -2.2326    0.4166 C   0  0  0  0  0  0  0  0  0  0  0  0
   -1.3347   -3.0204   -0.5294 C   0  0  0  0  0  0  0  0  0  0  0  0
    5.1800   -0.7719   -1.3875 H   0  0  0  0  0  0  0  0  0  0  0  0
    4.9020   -1.2526   -3.0710 H   0  0  0  0  0  0  0  0  0  0  0  0
    3.8891   -0.0097   -2.3210 H   0  0  0  0  0  0  0  0  0  0  0  0
    3.9662   -2.9749   -1.5462 H   0  0  0  0  0  0  0  0  0  0  0  0
    2.6487   -2.1451   -2.4249 H   0  0  0  0  0  0  0  0  0  0  0  0
    1.5024    0.5878    2.5032 H   0  0  0  0  0  0  0  0  0  0  0  0
    0.3419   -0.6913    2.9569 H   0  0  0  0  0  0  0  0  0  0  0  0
    2.2726   -2.2715    3.2782 H   0  0  0  0  0  0  0  0  0  0  0  0
    3.3913   -0.9763    2.8291 H   0  0  0  0  0  0  0  0  0  0  0  0
    2.4429   -0.8446    4.3199 H   0  0  0  0  0  0  0  0  0  0  0  0
   -0.5050    1.7872   -1.9941 H   0  0  0  0  0  0  0  0  0  0  0  0
    1.0825    2.1405   -1.2173 H   0  0  0  0  0  0  0  0  0  0  0  0
   -4.8352    1.5313    0.0845 H   0  0  0  0  0  0  0  0  0  0  0  0
   -4.9285    1.6956    1.8645 H   0  0  0  0  0  0  0  0  0  0  0  0
   -3.1114    3.2745   -0.0336 H   0  0  0  0  0  0  0  0  0  0  0  0
   -4.5131    3.9125    0.8374 H   0  0  0  0  0  0  0  0  0  0  0  0
   -3.0660    3.4073    1.7299 H   0  0  0  0  0  0  0  0  0  0  0  0
   -2.2942   -2.7165    1.3918 H   0  0  0  0  0  0  0  0  0  0  0  0
   -3.2199   -2.0958   -0.0039 H   0  0  0  0  0  0  0  0  0  0  0  0
   -0.3197   -3.0581   -0.1402 H   0  0  0  0  0  0  0  0  0  0  0  0
   -1.7225   -4.0291   -0.6284 H   0  0  0  0  0  0  0  0  0  0  0  0
   -1.3158   -2.5464   -1.5088 H   0  0  0  0  0  0  0  0  0  0  0  0
  1  2  1  0  0  0  0
  2  3  1  0  0  0  0
  3  4  2  0  0  0  0
  4  5  2  0  0  0  0
  4  6  2  0  0  0  0
  6  7  1  0  0  0  0
  7  8  1  0  0  0  0
  4  9  1  0  0  0  0
  9 10  1  0  0  0  0
 10 11  1  0  0  0  0
 11 12  1  0  0  0  0
 12 13  2  0  0  0  0
 12 14  2  0  0  0  0
 14 15  1  0  0  0  0
 15 16  1  0  0  0  0
 12 17  2  0  0  0  0
 17 18  1  0  0  0  0
 18 19  1  0  0  0  0
  1 20  1  0  0  0  0
  1 21  1  0  0  0  0
  1 22  1  0  0  0  0
  2 23  1  0  0  0  0
  2 24  1  0  0  0  0
  7 25  1  0  0  0  0
  7 26  1  0  0  0  0
  8 27  1  0  0  0  0
  8 28  1  0  0  0  0
  8 29  1  0  0  0  0
 10 30  1  0  0  0  0
 10 31  1  0  0  0  0
 15 32  1  0  0  0  0
 15 33  1  0  0  0  0
 16 34  1  0  0  0  0
 16 35  1  0  0  0  0
 16 36  1  0  0  0  0
 18 37  1  0  0  0  0
 18 38  1  0  0  0  0
 19 39  1  0  0  0  0
 19 40  1  0  0  0  0
 19 41  1  0  0  0  0
M  END
