 xtb: 6.7.1 (edcfbbe)
          04032519403D

 19 19  0     0  0            999 V2000
   -2.6063    0.5414   -0.0549 C   0  0  0  0  0  0  0  0  0  0  0  0
   -1.2249   -0.0476    0.0035 C   0  0  0  0  0  0  0  0  0  0  0  0
   -1.1355   -1.4369    0.0126 C   0  0  0  0  0  0  0  0  0  0  0  0
    0.0868   -2.0771    0.0280 C   0  0  0  0  0  0  0  0  0  0  0  0
    1.2470   -1.3293    0.0084 C   0  0  0  0  0  0  0  0  0  0  0  0
    1.1754    0.0575   -0.0070 C   0  0  0  0  0  0  0  0  0  0  0  0
   -0.0596    0.7208    0.0206 C   0  0  0  0  0  0  0  0  0  0  0  0
   -0.0822    2.2263    0.0669 C   0  0  0  0  0  0  0  0  0  0  0  0
    2.3690    0.7218   -0.0510 O   0  0  0  0  0  0  0  0  0  0  0  0
   -3.0612    0.2914   -1.0125 H   0  0  0  0  0  0  0  0  0  0  0  0
   -3.2262    0.1100    0.7289 H   0  0  0  0  0  0  0  0  0  0  0  0
   -2.6168    1.6197    0.0489 H   0  0  0  0  0  0  0  0  0  0  0  0
   -2.0457   -2.0183    0.0067 H   0  0  0  0  0  0  0  0  0  0  0  0
    0.1403   -3.1550    0.0420 H   0  0  0  0  0  0  0  0  0  0  0  0
    2.2212   -1.7924   -0.0013 H   0  0  0  0  0  0  0  0  0  0  0  0
   -0.0495    2.6482   -0.9378 H   0  0  0  0  0  0  0  0  0  0  0  0
   -0.9823    2.5862    0.5544 H   0  0  0  0  0  0  0  0  0  0  0  0
    0.7605    2.6102    0.6400 H   0  0  0  0  0  0  0  0  0  0  0  0
    2.2283    1.6697   -0.1899 H   0  0  0  0  0  0  0  0  0  0  0  0
  1  2  1  0  0  0  0
  2  3  4  0  0  0  0
  3  4  4  0  0  0  0
  4  5  4  0  0  0  0
  5  6  4  0  0  0  0
  2  7  4  0  0  0  0
  6  7  4  0  0  0  0
  7  8  1  0  0  0  0
  6  9  1  0  0  0  0
  1 10  1  0  0  0  0
  1 11  1  0  0  0  0
  1 12  1  0  0  0  0
  3 13  1  0  0  0  0
  4 14  1  0  0  0  0
  5 15  1  0  0  0  0
  8 16  1  0  0  0  0
  8 17  1  0  0  0  0
  8 18  1  0  0  0  0
  9 19  1  0  0  0  0
M  END
