 xtb: 6.7.1 (edcfbbe)
          04032519423D

 20 20  0     0  0            999 V2000
    0.5817    1.4044    0.5196 C   0  0  0  0  0  0  0  0  0  0  0  0
    1.4511    0.3309   -0.1324 C   0  0  0  0  0  0  0  0  0  0  0  0
    1.5641    0.5701   -1.2011 H   0  0  0  0  0  0  0  0  0  0  0  0
    0.7347   -1.0301   -0.0338 C   0  0  0  0  0  0  0  0  0  0  0  0
    1.0566   -1.5146    0.8993 H   0  0  0  0  0  0  0  0  0  0  0  0
   -0.7927   -0.8507    0.0722 C   0  0  0  0  0  0  0  0  0  0  0  0
   -1.2877   -1.6933   -0.4375 H   0  0  0  0  0  0  0  0  0  0  0  0
   -1.2719    0.4250   -0.6377 C   0  0  0  0  0  0  0  0  0  0  0  0
   -1.1097    0.3032   -1.7263 H   0  0  0  0  0  0  0  0  0  0  0  0
   -0.6069    1.5988   -0.2234 O   0  0  0  0  0  0  0  0  0  0  0  0
   -2.6305    0.5557   -0.3638 O   0  0  0  0  0  0  0  0  0  0  0  0
   -1.1462   -0.8410    1.4309 O   0  0  0  0  0  0  0  0  0  0  0  0
    1.1072   -1.7835   -1.1614 O   0  0  0  0  0  0  0  0  0  0  0  0
    2.6985    0.3218    0.5101 O   0  0  0  0  0  0  0  0  0  0  0  0
    1.0970    2.3648    0.5104 H   0  0  0  0  0  0  0  0  0  0  0  0
    0.3640    1.1136    1.5537 H   0  0  0  0  0  0  0  0  0  0  0  0
   -2.9266    1.4415   -0.6231 H   0  0  0  0  0  0  0  0  0  0  0  0
   -2.0723   -0.5562    1.4976 H   0  0  0  0  0  0  0  0  0  0  0  0
    0.8260   -2.7039   -1.0574 H   0  0  0  0  0  0  0  0  0  0  0  0
    3.2843   -0.3043    0.0601 H   0  0  0  0  0  0  0  0  0  0  0  0
  1  2  1  0  0  0  0
  2  3  1  0  0  0  0
  2  4  1  0  0  0  0
  4  5  1  0  0  0  0
  4  6  1  0  0  0  0
  6  7  1  0  0  0  0
  6  8  1  0  0  0  0
  8  9  1  0  0  0  0
  1 10  1  0  0  0  0
  8 10  1  0  0  0  0
  8 11  1  0  0  0  0
  6 12  1  0  0  0  0
  4 13  1  0  0  0  0
  2 14  1  0  0  0  0
  1 15  1  0  0  0  0
  1 16  1  0  0  0  0
 11 17  1  0  0  0  0
 12 18  1  0  0  0  0
 13 19  1  0  0  0  0
 14 20  1  0  0  0  0
M  END
