 xtb: 6.7.1 (edcfbbe)
          04092507313D

 38 37  0     0  0            999 V2000
    5.2447   -0.0110   -0.8007 C   0  0  0  0  0  0  0  0  0  0  0  0
    4.8226   -1.3869   -1.2901 C   0  0  0  0  0  0  0  0  0  0  0  0
    3.5720   -1.7880   -0.6965 O   0  0  0  0  0  0  0  0  0  0  0  0
    2.4533   -1.3656   -1.2486 C   0  0  0  0  0  0  0  0  0  0  0  0
    2.3898   -0.6681   -2.2362 O   0  0  0  0  0  0  0  0  0  0  0  0
    1.2389   -1.8970   -0.5072 C   0  0  0  0  0  0  0  0  0  0  0  0
    0.1921   -0.7981   -0.3955 C   0  0  0  0  0  0  0  0  0  0  0  0
    0.0287   -0.3439   -1.3822 H   0  0  0  0  0  0  0  0  0  0  0  0
    0.5926    0.3180    0.5456 C   0  0  0  0  0  0  0  0  0  0  0  0
   -0.2287    0.9158    1.2152 O   0  0  0  0  0  0  0  0  0  0  0  0
    1.8714    0.5645    0.5294 O   0  0  0  0  0  0  0  0  0  0  0  0
    2.3843    1.6134    1.3834 C   0  0  0  0  0  0  0  0  0  0  0  0
    2.7420    1.0557    2.7506 C   0  0  0  0  0  0  0  0  0  0  0  0
   -1.4094   -1.4535    0.1932 S   0  0  0  0  0  0  0  0  0  0  0  0
   -2.5268    0.3472    0.1556 P   0  0  0  0  0  0  0  0  0  0  0  0
   -1.9878    1.7413   -1.1260 S   0  0  0  0  0  0  0  0  0  0  0  0
   -3.9717   -0.2555   -0.1906 O   0  0  0  0  0  0  0  0  0  0  0  0
   -4.2472   -0.8305   -1.4702 C   0  0  0  0  0  0  0  0  0  0  0  0
   -2.9428    0.7703    1.6248 O   0  0  0  0  0  0  0  0  0  0  0  0
   -2.5708    1.9858    2.2779 C   0  0  0  0  0  0  0  0  0  0  0  0
    4.5171    0.7320   -1.1194 H   0  0  0  0  0  0  0  0  0  0  0  0
    5.3134   -0.0033    0.2834 H   0  0  0  0  0  0  0  0  0  0  0  0
    6.2123    0.2392   -1.2231 H   0  0  0  0  0  0  0  0  0  0  0  0
    5.5293   -2.1563   -0.9791 H   0  0  0  0  0  0  0  0  0  0  0  0
    4.7084   -1.3893   -2.3778 H   0  0  0  0  0  0  0  0  0  0  0  0
    1.5392   -2.2678    0.4711 H   0  0  0  0  0  0  0  0  0  0  0  0
    0.8201   -2.7224   -1.0859 H   0  0  0  0  0  0  0  0  0  0  0  0
    3.2652    1.9838    0.8592 H   0  0  0  0  0  0  0  0  0  0  0  0
    1.6300    2.4006    1.4603 H   0  0  0  0  0  0  0  0  0  0  0  0
    3.1894    1.8419    3.3495 H   0  0  0  0  0  0  0  0  0  0  0  0
    1.8498    0.6920    3.2551 H   0  0  0  0  0  0  0  0  0  0  0  0
    3.4484    0.2365    2.6479 H   0  0  0  0  0  0  0  0  0  0  0  0
   -3.7361   -1.7884   -1.5716 H   0  0  0  0  0  0  0  0  0  0  0  0
   -3.9272   -0.1516   -2.2635 H   0  0  0  0  0  0  0  0  0  0  0  0
   -5.3249   -0.9678   -1.5024 H   0  0  0  0  0  0  0  0  0  0  0  0
   -3.4692    2.3536    2.7691 H   0  0  0  0  0  0  0  0  0  0  0  0
   -2.2094    2.7155    1.5514 H   0  0  0  0  0  0  0  0  0  0  0  0
   -1.7888    1.7726    3.0039 H   0  0  0  0  0  0  0  0  0  0  0  0
  1  2  1  0  0  0  0
  2  3  1  0  0  0  0
  3  4  1  0  0  0  0
  4  5  2  0  0  0  0
  4  6  1  0  0  0  0
  6  7  1  0  0  0  0
  7  8  1  0  0  0  0
  7  9  1  0  0  0  0
  9 10  2  0  0  0  0
  9 11  4  0  0  0  0
 11 12  1  0  0  0  0
 12 13  1  0  0  0  0
  7 14  1  0  0  0  0
 14 15  1  0  0  0  0
 15 16  2  0  0  0  0
 15 17  1  0  0  0  0
 17 18  1  0  0  0  0
 15 19  2  0  0  0  0
 19 20  1  0  0  0  0
  1 21  1  0  0  0  0
  1 22  1  0  0  0  0
  1 23  1  0  0  0  0
  2 24  1  0  0  0  0
  2 25  1  0  0  0  0
  6 26  1  0  0  0  0
  6 27  1  0  0  0  0
 12 28  1  0  0  0  0
 12 29  1  0  0  0  0
 13 30  1  0  0  0  0
 13 31  1  0  0  0  0
 13 32  1  0  0  0  0
 18 33  1  0  0  0  0
 18 34  1  0  0  0  0
 18 35  1  0  0  0  0
 20 36  1  0  0  0  0
 20 37  1  0  0  0  0
 20 38  1  0  0  0  0
M  END
