 xtb: 6.7.1 (edcfbbe)
          04092505203D

 41 40  0     0  0            999 V2000
    5.0336   -2.3559   -1.3975 C   0  0  0  0  0  0  0  0  0  0  0  0
    4.0560   -1.2076   -1.5449 C   0  0  0  0  0  0  0  0  0  0  0  0
    3.0364   -1.3609   -0.5361 O   0  0  0  0  0  0  0  0  0  0  0  0
    2.0998   -0.1534   -0.1087 P   0  0  0  0  0  0  0  0  0  0  0  0
    3.0302    1.5276    0.2927 S   0  0  0  0  0  0  0  0  0  0  0  0
    1.2644   -0.8141    1.0583 O   0  0  0  0  0  0  0  0  0  0  0  0
    1.5481   -0.5624    2.4493 C   0  0  0  0  0  0  0  0  0  0  0  0
    2.8148   -1.2672    2.8854 C   0  0  0  0  0  0  0  0  0  0  0  0
    0.6756   -0.0871   -1.6711 S   0  0  0  0  0  0  0  0  0  0  0  0
    0.0360    1.5724   -1.3055 C   0  0  0  0  0  0  0  0  0  0  0  0
   -0.6715    1.7112    0.3541 S   0  0  0  0  0  0  0  0  0  0  0  0
   -2.2265    0.2885    0.0756 P   0  0  0  0  0  0  0  0  0  0  0  0
   -3.0366    0.2364   -1.7121 S   0  0  0  0  0  0  0  0  0  0  0  0
   -3.1731    0.5537    1.3188 O   0  0  0  0  0  0  0  0  0  0  0  0
   -3.6887    1.8357    1.7234 C   0  0  0  0  0  0  0  0  0  0  0  0
   -4.3952    2.5674    0.6009 C   0  0  0  0  0  0  0  0  0  0  0  0
   -1.5819   -1.0748    0.5570 O   0  0  0  0  0  0  0  0  0  0  0  0
   -1.6993   -2.3134   -0.1636 C   0  0  0  0  0  0  0  0  0  0  0  0
   -2.9725   -3.0339    0.2287 C   0  0  0  0  0  0  0  0  0  0  0  0
    5.5088   -2.3214   -0.4214 H   0  0  0  0  0  0  0  0  0  0  0  0
    4.5108   -3.3021   -1.5018 H   0  0  0  0  0  0  0  0  0  0  0  0
    5.7931   -2.2770   -2.1683 H   0  0  0  0  0  0  0  0  0  0  0  0
    3.5709   -1.2184   -2.5248 H   0  0  0  0  0  0  0  0  0  0  0  0
    4.5472   -0.2395   -1.3994 H   0  0  0  0  0  0  0  0  0  0  0  0
    1.6317    0.5193    2.5984 H   0  0  0  0  0  0  0  0  0  0  0  0
    0.6657   -0.9388    2.9691 H   0  0  0  0  0  0  0  0  0  0  0  0
    3.6666   -0.8525    2.3473 H   0  0  0  0  0  0  0  0  0  0  0  0
    2.9628   -1.1194    3.9505 H   0  0  0  0  0  0  0  0  0  0  0  0
    2.7469   -2.3302    2.6706 H   0  0  0  0  0  0  0  0  0  0  0  0
   -0.7320    1.7741   -2.0518 H   0  0  0  0  0  0  0  0  0  0  0  0
    0.8474    2.2973   -1.3573 H   0  0  0  0  0  0  0  0  0  0  0  0
   -4.3766    1.5893    2.5344 H   0  0  0  0  0  0  0  0  0  0  0  0
   -2.8570    2.4310    2.1110 H   0  0  0  0  0  0  0  0  0  0  0  0
   -5.1712    1.9402    0.1685 H   0  0  0  0  0  0  0  0  0  0  0  0
   -4.8426    3.4767    0.9894 H   0  0  0  0  0  0  0  0  0  0  0  0
   -3.6858    2.8285   -0.1832 H   0  0  0  0  0  0  0  0  0  0  0  0
   -1.6847   -2.1069   -1.2394 H   0  0  0  0  0  0  0  0  0  0  0  0
   -0.8055   -2.8758    0.1120 H   0  0  0  0  0  0  0  0  0  0  0  0
   -3.8340   -2.4328   -0.0586 H   0  0  0  0  0  0  0  0  0  0  0  0
   -3.0190   -3.9901   -0.2825 H   0  0  0  0  0  0  0  0  0  0  0  0
   -2.9983   -3.1927    1.3031 H   0  0  0  0  0  0  0  0  0  0  0  0
  1  2  1  0  0  0  0
  2  3  1  0  0  0  0
  3  4  2  0  0  0  0
  4  5  2  0  0  0  0
  4  6  2  0  0  0  0
  6  7  1  0  0  0  0
  7  8  1  0  0  0  0
  4  9  1  0  0  0  0
  9 10  1  0  0  0  0
 10 11  1  0  0  0  0
 11 12  1  0  0  0  0
 12 13  2  0  0  0  0
 12 14  2  0  0  0  0
 14 15  1  0  0  0  0
 15 16  1  0  0  0  0
 12 17  2  0  0  0  0
 17 18  1  0  0  0  0
 18 19  1  0  0  0  0
  1 20  1  0  0  0  0
  1 21  1  0  0  0  0
  1 22  1  0  0  0  0
  2 23  1  0  0  0  0
  2 24  1  0  0  0  0
  7 25  1  0  0  0  0
  7 26  1  0  0  0  0
  8 27  1  0  0  0  0
  8 28  1  0  0  0  0
  8 29  1  0  0  0  0
 10 30  1  0  0  0  0
 10 31  1  0  0  0  0
 15 32  1  0  0  0  0
 15 33  1  0  0  0  0
 16 34  1  0  0  0  0
 16 35  1  0  0  0  0
 16 36  1  0  0  0  0
 18 37  1  0  0  0  0
 18 38  1  0  0  0  0
 19 39  1  0  0  0  0
 19 40  1  0  0  0  0
 19 41  1  0  0  0  0
M  END
