 xtb: 6.7.1 (edcfbbe)
          04092505203D

 41 40  0     0  0            999 V2000
    5.0279    0.1445   -2.0987 C   0  0  0  0  0  0  0  0  0  0  0  0
    4.0081   -0.9689   -2.2109 C   0  0  0  0  0  0  0  0  0  0  0  0
    3.2847   -1.1607   -0.9785 O   0  0  0  0  0  0  0  0  0  0  0  0
    2.2259   -0.1162   -0.4331 P   0  0  0  0  0  0  0  0  0  0  0  0
    1.1663    0.7416   -1.8535 S   0  0  0  0  0  0  0  0  0  0  0  0
    3.1441    0.8336    0.4405 O   0  0  0  0  0  0  0  0  0  0  0  0
    2.7112    2.0050    1.1551 C   0  0  0  0  0  0  0  0  0  0  0  0
    2.4724    1.6821    2.6161 C   0  0  0  0  0  0  0  0  0  0  0  0
    1.2254   -1.3724    0.9248 S   0  0  0  0  0  0  0  0  0  0  0  0
   -0.0786   -1.9719   -0.2084 C   0  0  0  0  0  0  0  0  0  0  0  0
   -1.7329   -1.8753    0.5054 S   0  0  0  0  0  0  0  0  0  0  0  0
   -2.0781    0.2263    0.3070 P   0  0  0  0  0  0  0  0  0  0  0  0
   -0.8271    1.4769    1.1389 S   0  0  0  0  0  0  0  0  0  0  0  0
   -3.5985    0.3408    0.7494 O   0  0  0  0  0  0  0  0  0  0  0  0
   -4.1535   -0.2185    1.9559 C   0  0  0  0  0  0  0  0  0  0  0  0
   -3.3637    0.1482    3.1941 C   0  0  0  0  0  0  0  0  0  0  0  0
   -2.1400    0.5109   -1.2404 O   0  0  0  0  0  0  0  0  0  0  0  0
   -3.0356   -0.1601   -2.1598 C   0  0  0  0  0  0  0  0  0  0  0  0
   -4.2644    0.6871   -2.4193 C   0  0  0  0  0  0  0  0  0  0  0  0
    5.6798   -0.0285   -1.2466 H   0  0  0  0  0  0  0  0  0  0  0  0
    5.6199    0.1845   -3.0077 H   0  0  0  0  0  0  0  0  0  0  0  0
    4.5196    1.0983   -1.9640 H   0  0  0  0  0  0  0  0  0  0  0  0
    4.4803   -1.9360   -2.3877 H   0  0  0  0  0  0  0  0  0  0  0  0
    3.2859   -0.7521   -3.0047 H   0  0  0  0  0  0  0  0  0  0  0  0
    3.5296    2.7177    1.0352 H   0  0  0  0  0  0  0  0  0  0  0  0
    1.8055    2.4051    0.6893 H   0  0  0  0  0  0  0  0  0  0  0  0
    3.3503    1.2029    3.0397 H   0  0  0  0  0  0  0  0  0  0  0  0
    2.2633    2.6023    3.1514 H   0  0  0  0  0  0  0  0  0  0  0  0
    1.6165    1.0189    2.7202 H   0  0  0  0  0  0  0  0  0  0  0  0
    0.0966   -3.0247   -0.4131 H   0  0  0  0  0  0  0  0  0  0  0  0
   -0.0386   -1.3722   -1.1217 H   0  0  0  0  0  0  0  0  0  0  0  0
   -5.1629    0.1954    1.9900 H   0  0  0  0  0  0  0  0  0  0  0  0
   -4.1986   -1.3041    1.8340 H   0  0  0  0  0  0  0  0  0  0  0  0
   -2.3650   -0.2845    3.1446 H   0  0  0  0  0  0  0  0  0  0  0  0
   -3.2651    1.2283    3.2764 H   0  0  0  0  0  0  0  0  0  0  0  0
   -3.8718   -0.2358    4.0727 H   0  0  0  0  0  0  0  0  0  0  0  0
   -2.4435   -0.2904   -3.0682 H   0  0  0  0  0  0  0  0  0  0  0  0
   -3.3062   -1.1361   -1.7468 H   0  0  0  0  0  0  0  0  0  0  0  0
   -4.8281    0.8244   -1.5004 H   0  0  0  0  0  0  0  0  0  0  0  0
   -3.9691    1.6623   -2.7969 H   0  0  0  0  0  0  0  0  0  0  0  0
   -4.8888    0.1905   -3.1553 H   0  0  0  0  0  0  0  0  0  0  0  0
  1  2  1  0  0  0  0
  2  3  1  0  0  0  0
  3  4  2  0  0  0  0
  4  5  2  0  0  0  0
  4  6  2  0  0  0  0
  6  7  1  0  0  0  0
  7  8  1  0  0  0  0
  4  9  1  0  0  0  0
  9 10  1  0  0  0  0
 10 11  1  0  0  0  0
 11 12  1  0  0  0  0
 12 13  2  0  0  0  0
 12 14  2  0  0  0  0
 14 15  1  0  0  0  0
 15 16  1  0  0  0  0
 12 17  2  0  0  0  0
 17 18  1  0  0  0  0
 18 19  1  0  0  0  0
  1 20  1  0  0  0  0
  1 21  1  0  0  0  0
  1 22  1  0  0  0  0
  2 23  1  0  0  0  0
  2 24  1  0  0  0  0
  7 25  1  0  0  0  0
  7 26  1  0  0  0  0
  8 27  1  0  0  0  0
  8 28  1  0  0  0  0
  8 29  1  0  0  0  0
 10 30  1  0  0  0  0
 10 31  1  0  0  0  0
 15 32  1  0  0  0  0
 15 33  1  0  0  0  0
 16 34  1  0  0  0  0
 16 35  1  0  0  0  0
 16 36  1  0  0  0  0
 18 37  1  0  0  0  0
 18 38  1  0  0  0  0
 19 39  1  0  0  0  0
 19 40  1  0  0  0  0
 19 41  1  0  0  0  0
M  END
