 xtb: 6.7.1 (edcfbbe)
          04092507313D

 38 37  0     0  0            999 V2000
    2.1451   -3.6903    0.4827 C   0  0  0  0  0  0  0  0  0  0  0  0
    3.1172   -2.6149    0.0284 C   0  0  0  0  0  0  0  0  0  0  0  0
    2.5295   -1.8329   -1.0298 O   0  0  0  0  0  0  0  0  0  0  0  0
    2.1518   -0.5983   -0.8002 C   0  0  0  0  0  0  0  0  0  0  0  0
    2.2560   -0.0123    0.2599 O   0  0  0  0  0  0  0  0  0  0  0  0
    1.5944    0.0639   -2.0451 C   0  0  0  0  0  0  0  0  0  0  0  0
    0.3772    0.9224   -1.6990 C   0  0  0  0  0  0  0  0  0  0  0  0
    0.1852    1.6362   -2.5037 H   0  0  0  0  0  0  0  0  0  0  0  0
    0.5782    1.6902   -0.4059 C   0  0  0  0  0  0  0  0  0  0  0  0
   -0.1477    1.5370    0.5621 O   0  0  0  0  0  0  0  0  0  0  0  0
    1.5354    2.5674   -0.5003 O   0  0  0  0  0  0  0  0  0  0  0  0
    1.8678    3.3452    0.6703 C   0  0  0  0  0  0  0  0  0  0  0  0
    0.9039    4.5050    0.8564 C   0  0  0  0  0  0  0  0  0  0  0  0
   -1.1470   -0.0684   -1.5622 S   0  0  0  0  0  0  0  0  0  0  0  0
   -1.5888   -0.3595    0.5072 P   0  0  0  0  0  0  0  0  0  0  0  0
   -0.3360   -1.1136    1.8150 S   0  0  0  0  0  0  0  0  0  0  0  0
   -2.5348    0.8024    1.0312 O   0  0  0  0  0  0  0  0  0  0  0  0
   -3.7739    1.1423    0.3818 C   0  0  0  0  0  0  0  0  0  0  0  0
   -2.7508   -1.4538    0.2147 O   0  0  0  0  0  0  0  0  0  0  0  0
   -2.4560   -2.8094   -0.1159 C   0  0  0  0  0  0  0  0  0  0  0  0
    1.8213   -4.2841   -0.3670 H   0  0  0  0  0  0  0  0  0  0  0  0
    2.6349   -4.3322    1.2070 H   0  0  0  0  0  0  0  0  0  0  0  0
    1.2771   -3.2325    0.9535 H   0  0  0  0  0  0  0  0  0  0  0  0
    4.0167   -3.0529   -0.4079 H   0  0  0  0  0  0  0  0  0  0  0  0
    3.3776   -1.9483    0.8550 H   0  0  0  0  0  0  0  0  0  0  0  0
    1.3339   -0.6911   -2.7853 H   0  0  0  0  0  0  0  0  0  0  0  0
    2.3804    0.7096   -2.4438 H   0  0  0  0  0  0  0  0  0  0  0  0
    1.8574    2.6770    1.5360 H   0  0  0  0  0  0  0  0  0  0  0  0
    2.8816    3.6926    0.4729 H   0  0  0  0  0  0  0  0  0  0  0  0
   -0.0975    4.1324    1.0611 H   0  0  0  0  0  0  0  0  0  0  0  0
    1.2313    5.1059    1.6983 H   0  0  0  0  0  0  0  0  0  0  0  0
    0.8815    5.1215   -0.0380 H   0  0  0  0  0  0  0  0  0  0  0  0
   -4.4998    0.3452    0.5312 H   0  0  0  0  0  0  0  0  0  0  0  0
   -3.6111    1.3006   -0.6846 H   0  0  0  0  0  0  0  0  0  0  0  0
   -4.0998    2.0607    0.8638 H   0  0  0  0  0  0  0  0  0  0  0  0
   -2.1357   -2.8781   -1.1555 H   0  0  0  0  0  0  0  0  0  0  0  0
   -3.3814   -3.3588    0.0372 H   0  0  0  0  0  0  0  0  0  0  0  0
   -1.6739   -3.1923    0.5432 H   0  0  0  0  0  0  0  0  0  0  0  0
  1  2  1  0  0  0  0
  2  3  1  0  0  0  0
  3  4  4  0  0  0  0
  4  5  2  0  0  0  0
  4  6  1  0  0  0  0
  6  7  1  0  0  0  0
  7  8  1  0  0  0  0
  7  9  1  0  0  0  0
  9 10  2  0  0  0  0
  9 11  4  0  0  0  0
 11 12  1  0  0  0  0
 12 13  1  0  0  0  0
  7 14  1  0  0  0  0
 14 15  1  0  0  0  0
 15 16  2  0  0  0  0
 15 17  2  0  0  0  0
 17 18  1  0  0  0  0
 15 19  1  0  0  0  0
 19 20  1  0  0  0  0
  1 21  1  0  0  0  0
  1 22  1  0  0  0  0
  1 23  1  0  0  0  0
  2 24  1  0  0  0  0
  2 25  1  0  0  0  0
  6 26  1  0  0  0  0
  6 27  1  0  0  0  0
 12 28  1  0  0  0  0
 12 29  1  0  0  0  0
 13 30  1  0  0  0  0
 13 31  1  0  0  0  0
 13 32  1  0  0  0  0
 18 33  1  0  0  0  0
 18 34  1  0  0  0  0
 18 35  1  0  0  0  0
 20 36  1  0  0  0  0
 20 37  1  0  0  0  0
 20 38  1  0  0  0  0
M  END
