 xtb: 6.7.1 (edcfbbe)
          04092505203D

 41 40  0     0  0            999 V2000
    4.5674   -0.1580   -2.0752 C   0  0  0  0  0  0  0  0  0  0  0  0
    4.4899    0.9113   -1.0050 C   0  0  0  0  0  0  0  0  0  0  0  0
    3.6368    0.5312    0.0894 O   0  0  0  0  0  0  0  0  0  0  0  0
    2.0682    0.3225   -0.0669 P   0  0  0  0  0  0  0  0  0  0  0  0
    1.1523    1.6187   -1.2139 S   0  0  0  0  0  0  0  0  0  0  0  0
    1.5921    0.3902    1.4372 O   0  0  0  0  0  0  0  0  0  0  0  0
    2.2538   -0.3903    2.4746 C   0  0  0  0  0  0  0  0  0  0  0  0
    1.2138   -0.8820    3.4592 C   0  0  0  0  0  0  0  0  0  0  0  0
    1.8965   -1.7237   -0.6184 S   0  0  0  0  0  0  0  0  0  0  0  0
    0.1409   -1.7254   -1.0414 C   0  0  0  0  0  0  0  0  0  0  0  0
   -0.9398   -1.4608    0.3993 S   0  0  0  0  0  0  0  0  0  0  0  0
   -2.0606    0.2280   -0.2543 P   0  0  0  0  0  0  0  0  0  0  0  0
   -2.1472    0.5248   -2.1835 S   0  0  0  0  0  0  0  0  0  0  0  0
   -1.5055    1.4602    0.5578 O   0  0  0  0  0  0  0  0  0  0  0  0
   -1.4648    1.4966    2.0055 C   0  0  0  0  0  0  0  0  0  0  0  0
   -2.6210    2.3074    2.5525 C   0  0  0  0  0  0  0  0  0  0  0  0
   -3.4699   -0.0065    0.4509 O   0  0  0  0  0  0  0  0  0  0  0  0
   -4.5337   -0.7546   -0.1643 C   0  0  0  0  0  0  0  0  0  0  0  0
   -4.1920   -2.2199   -0.3403 C   0  0  0  0  0  0  0  0  0  0  0  0
    3.6080   -0.2466   -2.5829 H   0  0  0  0  0  0  0  0  0  0  0  0
    5.3234    0.1190   -2.8029 H   0  0  0  0  0  0  0  0  0  0  0  0
    4.8229   -1.1185   -1.6347 H   0  0  0  0  0  0  0  0  0  0  0  0
    4.1132    1.8490   -1.4250 H   0  0  0  0  0  0  0  0  0  0  0  0
    5.4578    1.0780   -0.5301 H   0  0  0  0  0  0  0  0  0  0  0  0
    2.7790   -1.2256    2.0032 H   0  0  0  0  0  0  0  0  0  0  0  0
    2.9799    0.2717    2.9486 H   0  0  0  0  0  0  0  0  0  0  0  0
    0.6915   -0.0420    3.9076 H   0  0  0  0  0  0  0  0  0  0  0  0
    0.4925   -1.5222    2.9572 H   0  0  0  0  0  0  0  0  0  0  0  0
    1.7125   -1.4505    4.2377 H   0  0  0  0  0  0  0  0  0  0  0  0
   -0.0671   -2.7127   -1.4458 H   0  0  0  0  0  0  0  0  0  0  0  0
   -0.0698   -0.9448   -1.7779 H   0  0  0  0  0  0  0  0  0  0  0  0
   -1.4832    0.4710    2.3850 H   0  0  0  0  0  0  0  0  0  0  0  0
   -0.5024    1.9580    2.2381 H   0  0  0  0  0  0  0  0  0  0  0  0
   -2.6124    3.3042    2.1196 H   0  0  0  0  0  0  0  0  0  0  0  0
   -3.5650    1.8272    2.3093 H   0  0  0  0  0  0  0  0  0  0  0  0
   -2.5219    2.3824    3.6308 H   0  0  0  0  0  0  0  0  0  0  0  0
   -5.3736   -0.6170    0.5182 H   0  0  0  0  0  0  0  0  0  0  0  0
   -4.7597   -0.2952   -1.1313 H   0  0  0  0  0  0  0  0  0  0  0  0
   -3.4098   -2.3308   -1.0897 H   0  0  0  0  0  0  0  0  0  0  0  0
   -3.8474   -2.6462    0.5984 H   0  0  0  0  0  0  0  0  0  0  0  0
   -5.0760   -2.7522   -0.6765 H   0  0  0  0  0  0  0  0  0  0  0  0
  1  2  1  0  0  0  0
  2  3  1  0  0  0  0
  3  4  2  0  0  0  0
  4  5  2  0  0  0  0
  4  6  2  0  0  0  0
  6  7  1  0  0  0  0
  7  8  1  0  0  0  0
  4  9  1  0  0  0  0
  9 10  1  0  0  0  0
 10 11  1  0  0  0  0
 11 12  1  0  0  0  0
 12 13  2  0  0  0  0
 12 14  2  0  0  0  0
 14 15  1  0  0  0  0
 15 16  1  0  0  0  0
 12 17  2  0  0  0  0
 17 18  1  0  0  0  0
 18 19  1  0  0  0  0
  1 20  1  0  0  0  0
  1 21  1  0  0  0  0
  1 22  1  0  0  0  0
  2 23  1  0  0  0  0
  2 24  1  0  0  0  0
  7 25  1  0  0  0  0
  7 26  1  0  0  0  0
  8 27  1  0  0  0  0
  8 28  1  0  0  0  0
  8 29  1  0  0  0  0
 10 30  1  0  0  0  0
 10 31  1  0  0  0  0
 15 32  1  0  0  0  0
 15 33  1  0  0  0  0
 16 34  1  0  0  0  0
 16 35  1  0  0  0  0
 16 36  1  0  0  0  0
 18 37  1  0  0  0  0
 18 38  1  0  0  0  0
 19 39  1  0  0  0  0
 19 40  1  0  0  0  0
 19 41  1  0  0  0  0
M  END
