 xtb: 6.7.1 (edcfbbe)
          04092505213D

 41 40  0     0  0            999 V2000
    3.2611   -0.3526   -3.2877 C   0  0  0  0  0  0  0  0  0  0  0  0
    2.0060   -0.7080   -2.5178 C   0  0  0  0  0  0  0  0  0  0  0  0
    1.8957    0.1013   -1.3252 O   0  0  0  0  0  0  0  0  0  0  0  0
    2.3790   -0.4349    0.0858 P   0  0  0  0  0  0  0  0  0  0  0  0
    4.2021   -1.1381    0.2252 S   0  0  0  0  0  0  0  0  0  0  0  0
    1.2576   -1.5306    0.4012 O   0  0  0  0  0  0  0  0  0  0  0  0
    1.4458   -2.5182    1.4296 C   0  0  0  0  0  0  0  0  0  0  0  0
    1.3783   -1.9061    2.8140 C   0  0  0  0  0  0  0  0  0  0  0  0
    1.9684    1.2793    1.2361 S   0  0  0  0  0  0  0  0  0  0  0  0
    0.3004    1.7137    0.6680 C   0  0  0  0  0  0  0  0  0  0  0  0
   -0.9765    0.5626    1.2607 S   0  0  0  0  0  0  0  0  0  0  0  0
   -2.2556    0.7083   -0.4375 P   0  0  0  0  0  0  0  0  0  0  0  0
   -1.3497    0.6689   -2.1746 S   0  0  0  0  0  0  0  0  0  0  0  0
   -3.0515    2.0630   -0.2651 O   0  0  0  0  0  0  0  0  0  0  0  0
   -4.2270    2.2619    0.5583 C   0  0  0  0  0  0  0  0  0  0  0  0
   -3.9698    2.0014    2.0273 C   0  0  0  0  0  0  0  0  0  0  0  0
   -3.3742   -0.3937   -0.2063 O   0  0  0  0  0  0  0  0  0  0  0  0
   -3.2317   -1.7465   -0.6766 C   0  0  0  0  0  0  0  0  0  0  0  0
   -2.1194   -2.4857    0.0373 C   0  0  0  0  0  0  0  0  0  0  0  0
    4.1437   -0.5830   -2.6943 H   0  0  0  0  0  0  0  0  0  0  0  0
    3.2896   -0.9276   -4.2076 H   0  0  0  0  0  0  0  0  0  0  0  0
    3.2641    0.7076   -3.5252 H   0  0  0  0  0  0  0  0  0  0  0  0
    2.0004   -1.7641   -2.2359 H   0  0  0  0  0  0  0  0  0  0  0  0
    1.1028   -0.4769   -3.0877 H   0  0  0  0  0  0  0  0  0  0  0  0
    0.6398   -3.2337    1.2632 H   0  0  0  0  0  0  0  0  0  0  0  0
    2.4156   -3.0004    1.2689 H   0  0  0  0  0  0  0  0  0  0  0  0
    0.4510   -1.3516    2.9389 H   0  0  0  0  0  0  0  0  0  0  0  0
    1.4337   -2.6940    3.5578 H   0  0  0  0  0  0  0  0  0  0  0  0
    2.2167   -1.2246    2.9577 H   0  0  0  0  0  0  0  0  0  0  0  0
    0.2797    1.7281   -0.4228 H   0  0  0  0  0  0  0  0  0  0  0  0
    0.1138    2.7012    1.0831 H   0  0  0  0  0  0  0  0  0  0  0  0
   -4.4836    3.3062    0.3731 H   0  0  0  0  0  0  0  0  0  0  0  0
   -5.0186    1.6124    0.1806 H   0  0  0  0  0  0  0  0  0  0  0  0
   -3.7278    0.9533    2.1897 H   0  0  0  0  0  0  0  0  0  0  0  0
   -3.1458    2.6120    2.3873 H   0  0  0  0  0  0  0  0  0  0  0  0
   -4.8657    2.2485    2.5885 H   0  0  0  0  0  0  0  0  0  0  0  0
   -4.2067   -2.1938   -0.4775 H   0  0  0  0  0  0  0  0  0  0  0  0
   -3.0465   -1.7203   -1.7550 H   0  0  0  0  0  0  0  0  0  0  0  0
   -2.1253   -3.5260   -0.2728 H   0  0  0  0  0  0  0  0  0  0  0  0
   -1.1571   -2.0455   -0.2211 H   0  0  0  0  0  0  0  0  0  0  0  0
   -2.2564   -2.4274    1.1143 H   0  0  0  0  0  0  0  0  0  0  0  0
  1  2  1  0  0  0  0
  2  3  1  0  0  0  0
  3  4  2  0  0  0  0
  4  5  2  0  0  0  0
  4  6  2  0  0  0  0
  6  7  1  0  0  0  0
  7  8  1  0  0  0  0
  4  9  1  0  0  0  0
  9 10  1  0  0  0  0
 10 11  1  0  0  0  0
 11 12  1  0  0  0  0
 12 13  2  0  0  0  0
 12 14  2  0  0  0  0
 14 15  1  0  0  0  0
 15 16  1  0  0  0  0
 12 17  2  0  0  0  0
 17 18  1  0  0  0  0
 18 19  1  0  0  0  0
  1 20  1  0  0  0  0
  1 21  1  0  0  0  0
  1 22  1  0  0  0  0
  2 23  1  0  0  0  0
  2 24  1  0  0  0  0
  7 25  1  0  0  0  0
  7 26  1  0  0  0  0
  8 27  1  0  0  0  0
  8 28  1  0  0  0  0
  8 29  1  0  0  0  0
 10 30  1  0  0  0  0
 10 31  1  0  0  0  0
 15 32  1  0  0  0  0
 15 33  1  0  0  0  0
 16 34  1  0  0  0  0
 16 35  1  0  0  0  0
 16 36  1  0  0  0  0
 18 37  1  0  0  0  0
 18 38  1  0  0  0  0
 19 39  1  0  0  0  0
 19 40  1  0  0  0  0
 19 41  1  0  0  0  0
M  END
