 xtb: 6.7.1 (edcfbbe)
          04092505213D

 41 40  0     0  0            999 V2000
    2.3494   -0.6990   -2.9711 C   0  0  0  0  0  0  0  0  0  0  0  0
    3.4705   -0.3470   -2.0145 C   0  0  0  0  0  0  0  0  0  0  0  0
    3.2600   -0.9221   -0.7161 O   0  0  0  0  0  0  0  0  0  0  0  0
    2.1721   -0.3776    0.3066 P   0  0  0  0  0  0  0  0  0  0  0  0
    2.0583    1.5856    0.3765 S   0  0  0  0  0  0  0  0  0  0  0  0
    2.5901   -1.0690    1.6692 O   0  0  0  0  0  0  0  0  0  0  0  0
    3.4797   -0.4327    2.6093 C   0  0  0  0  0  0  0  0  0  0  0  0
    4.8998   -0.3812    2.0870 C   0  0  0  0  0  0  0  0  0  0  0  0
    0.5058   -1.6050   -0.1158 S   0  0  0  0  0  0  0  0  0  0  0  0
   -0.4751   -1.3299    1.3862 C   0  0  0  0  0  0  0  0  0  0  0  0
   -1.0648    0.3795    1.6000 S   0  0  0  0  0  0  0  0  0  0  0  0
   -1.9965    0.6588   -0.2909 P   0  0  0  0  0  0  0  0  0  0  0  0
   -0.8888    1.1812   -1.8168 S   0  0  0  0  0  0  0  0  0  0  0  0
   -3.0621    1.7922    0.0001 O   0  0  0  0  0  0  0  0  0  0  0  0
   -4.3722    1.6067    0.5920 C   0  0  0  0  0  0  0  0  0  0  0  0
   -4.3263    1.0139    1.9840 C   0  0  0  0  0  0  0  0  0  0  0  0
   -2.7997   -0.7097   -0.4472 O   0  0  0  0  0  0  0  0  0  0  0  0
   -2.8186   -1.4734   -1.6693 C   0  0  0  0  0  0  0  0  0  0  0  0
   -3.8781   -0.9440   -2.6143 C   0  0  0  0  0  0  0  0  0  0  0  0
    2.1894   -1.7741   -2.9845 H   0  0  0  0  0  0  0  0  0  0  0  0
    1.4252   -0.2081   -2.6640 H   0  0  0  0  0  0  0  0  0  0  0  0
    2.6044   -0.3576   -3.9691 H   0  0  0  0  0  0  0  0  0  0  0  0
    3.5579    0.7396   -1.9067 H   0  0  0  0  0  0  0  0  0  0  0  0
    4.4237   -0.7679   -2.3377 H   0  0  0  0  0  0  0  0  0  0  0  0
    3.1055    0.5761    2.8120 H   0  0  0  0  0  0  0  0  0  0  0  0
    3.3994   -1.0495    3.5054 H   0  0  0  0  0  0  0  0  0  0  0  0
    5.2277   -1.3746    1.7929 H   0  0  0  0  0  0  0  0  0  0  0  0
    4.9497    0.2771    1.2207 H   0  0  0  0  0  0  0  0  0  0  0  0
    5.5553    0.0042    2.8616 H   0  0  0  0  0  0  0  0  0  0  0  0
    0.1254   -1.5545    2.2644 H   0  0  0  0  0  0  0  0  0  0  0  0
   -1.3277   -2.0004    1.3112 H   0  0  0  0  0  0  0  0  0  0  0  0
   -4.7811    2.6183    0.5997 H   0  0  0  0  0  0  0  0  0  0  0  0
   -4.9585    0.9759   -0.0794 H   0  0  0  0  0  0  0  0  0  0  0  0
   -3.6603    1.5909    2.6212 H   0  0  0  0  0  0  0  0  0  0  0  0
   -5.3272    1.0313    2.4045 H   0  0  0  0  0  0  0  0  0  0  0  0
   -3.9739   -0.0142    1.9474 H   0  0  0  0  0  0  0  0  0  0  0  0
   -1.8289   -1.4270   -2.1328 H   0  0  0  0  0  0  0  0  0  0  0  0
   -3.0308   -2.4943   -1.3497 H   0  0  0  0  0  0  0  0  0  0  0  0
   -3.8870   -1.5464   -3.5170 H   0  0  0  0  0  0  0  0  0  0  0  0
   -4.8591   -0.9815   -2.1480 H   0  0  0  0  0  0  0  0  0  0  0  0
   -3.6478    0.0871   -2.8809 H   0  0  0  0  0  0  0  0  0  0  0  0
  1  2  1  0  0  0  0
  2  3  1  0  0  0  0
  3  4  2  0  0  0  0
  4  5  2  0  0  0  0
  4  6  2  0  0  0  0
  6  7  1  0  0  0  0
  7  8  1  0  0  0  0
  4  9  1  0  0  0  0
  9 10  1  0  0  0  0
 10 11  1  0  0  0  0
 11 12  1  0  0  0  0
 12 13  2  0  0  0  0
 12 14  2  0  0  0  0
 14 15  1  0  0  0  0
 15 16  1  0  0  0  0
 12 17  2  0  0  0  0
 17 18  1  0  0  0  0
 18 19  1  0  0  0  0
  1 20  1  0  0  0  0
  1 21  1  0  0  0  0
  1 22  1  0  0  0  0
  2 23  1  0  0  0  0
  2 24  1  0  0  0  0
  7 25  1  0  0  0  0
  7 26  1  0  0  0  0
  8 27  1  0  0  0  0
  8 28  1  0  0  0  0
  8 29  1  0  0  0  0
 10 30  1  0  0  0  0
 10 31  1  0  0  0  0
 15 32  1  0  0  0  0
 15 33  1  0  0  0  0
 16 34  1  0  0  0  0
 16 35  1  0  0  0  0
 16 36  1  0  0  0  0
 18 37  1  0  0  0  0
 18 38  1  0  0  0  0
 19 39  1  0  0  0  0
 19 40  1  0  0  0  0
 19 41  1  0  0  0  0
M  END
