 xtb: 6.7.1 (edcfbbe)
          04092505213D

 41 40  0     0  0            999 V2000
    1.0163    1.8495    2.2321 C   0  0  0  0  0  0  0  0  0  0  0  0
    1.9845    0.8122    2.7619 C   0  0  0  0  0  0  0  0  0  0  0  0
    2.7156    0.1634    1.7068 O   0  0  0  0  0  0  0  0  0  0  0  0
    2.0577   -0.9174    0.7452 P   0  0  0  0  0  0  0  0  0  0  0  0
    0.8433   -2.1901    1.5982 S   0  0  0  0  0  0  0  0  0  0  0  0
    3.3047   -1.6769    0.1448 O   0  0  0  0  0  0  0  0  0  0  0  0
    4.3915   -1.0457   -0.5746 C   0  0  0  0  0  0  0  0  0  0  0  0
    5.5012   -0.6204    0.3648 C   0  0  0  0  0  0  0  0  0  0  0  0
    1.2944    0.2175   -0.8898 S   0  0  0  0  0  0  0  0  0  0  0  0
    0.1955   -1.0728   -1.5548 C   0  0  0  0  0  0  0  0  0  0  0  0
   -1.3252   -0.4197   -2.2961 S   0  0  0  0  0  0  0  0  0  0  0  0
   -2.2185    0.5994   -0.6491 P   0  0  0  0  0  0  0  0  0  0  0  0
   -4.0957    1.0520   -0.9691 S   0  0  0  0  0  0  0  0  0  0  0  0
   -1.2797    1.8131   -0.2636 O   0  0  0  0  0  0  0  0  0  0  0  0
   -1.4257    3.1068   -0.8744 C   0  0  0  0  0  0  0  0  0  0  0  0
   -0.8772    3.1250   -2.2876 C   0  0  0  0  0  0  0  0  0  0  0  0
   -1.8612   -0.2984    0.6114 O   0  0  0  0  0  0  0  0  0  0  0  0
   -2.6494   -1.4658    0.9208 C   0  0  0  0  0  0  0  0  0  0  0  0
   -3.6966   -1.1357    1.9648 C   0  0  0  0  0  0  0  0  0  0  0  0
    0.6040    2.4118    3.0640 H   0  0  0  0  0  0  0  0  0  0  0  0
    1.5281    2.5300    1.5559 H   0  0  0  0  0  0  0  0  0  0  0  0
    0.1986    1.3703    1.6962 H   0  0  0  0  0  0  0  0  0  0  0  0
    1.4569    0.0475    3.3410 H   0  0  0  0  0  0  0  0  0  0  0  0
    2.7627    1.2682    3.3762 H   0  0  0  0  0  0  0  0  0  0  0  0
    4.7328   -1.8171   -1.2674 H   0  0  0  0  0  0  0  0  0  0  0  0
    3.9959   -0.1921   -1.1325 H   0  0  0  0  0  0  0  0  0  0  0  0
    5.8344   -1.4692    0.9559 H   0  0  0  0  0  0  0  0  0  0  0  0
    6.3342   -0.2434   -0.2205 H   0  0  0  0  0  0  0  0  0  0  0  0
    5.1530    0.1596    1.0361 H   0  0  0  0  0  0  0  0  0  0  0  0
   -0.0513   -1.7599   -0.7423 H   0  0  0  0  0  0  0  0  0  0  0  0
    0.6977   -1.5905   -2.3689 H   0  0  0  0  0  0  0  0  0  0  0  0
   -2.4861    3.3802   -0.8642 H   0  0  0  0  0  0  0  0  0  0  0  0
   -0.8650    3.7722   -0.2165 H   0  0  0  0  0  0  0  0  0  0  0  0
   -1.4919    2.5016   -2.9357 H   0  0  0  0  0  0  0  0  0  0  0  0
   -0.8885    4.1428   -2.6639 H   0  0  0  0  0  0  0  0  0  0  0  0
    0.1421    2.7456   -2.2981 H   0  0  0  0  0  0  0  0  0  0  0  0
   -3.1175   -1.8432    0.0053 H   0  0  0  0  0  0  0  0  0  0  0  0
   -1.9320   -2.1997    1.2972 H   0  0  0  0  0  0  0  0  0  0  0  0
   -4.3971   -0.4010    1.5732 H   0  0  0  0  0  0  0  0  0  0  0  0
   -4.2367   -2.0401    2.2255 H   0  0  0  0  0  0  0  0  0  0  0  0
   -3.2191   -0.7319    2.8528 H   0  0  0  0  0  0  0  0  0  0  0  0
  1  2  1  0  0  0  0
  2  3  1  0  0  0  0
  3  4  2  0  0  0  0
  4  5  2  0  0  0  0
  4  6  2  0  0  0  0
  6  7  1  0  0  0  0
  7  8  1  0  0  0  0
  4  9  1  0  0  0  0
  9 10  1  0  0  0  0
 10 11  1  0  0  0  0
 11 12  1  0  0  0  0
 12 13  2  0  0  0  0
 12 14  2  0  0  0  0
 14 15  1  0  0  0  0
 15 16  1  0  0  0  0
 12 17  2  0  0  0  0
 17 18  1  0  0  0  0
 18 19  1  0  0  0  0
  1 20  1  0  0  0  0
  1 21  1  0  0  0  0
  1 22  1  0  0  0  0
  2 23  1  0  0  0  0
  2 24  1  0  0  0  0
  7 25  1  0  0  0  0
  7 26  1  0  0  0  0
  8 27  1  0  0  0  0
  8 28  1  0  0  0  0
  8 29  1  0  0  0  0
 10 30  1  0  0  0  0
 10 31  1  0  0  0  0
 15 32  1  0  0  0  0
 15 33  1  0  0  0  0
 16 34  1  0  0  0  0
 16 35  1  0  0  0  0
 16 36  1  0  0  0  0
 18 37  1  0  0  0  0
 18 38  1  0  0  0  0
 19 39  1  0  0  0  0
 19 40  1  0  0  0  0
 19 41  1  0  0  0  0
M  END
