 xtb: 6.7.1 (edcfbbe)
          04092505213D

 41 40  0     0  0            999 V2000
    1.4096    2.2730   -2.2369 C   0  0  0  0  0  0  0  0  0  0  0  0
    1.8612    0.8509   -1.9784 C   0  0  0  0  0  0  0  0  0  0  0  0
    1.2839    0.3627   -0.7469 O   0  0  0  0  0  0  0  0  0  0  0  0
    2.1453    0.3276    0.5846 P   0  0  0  0  0  0  0  0  0  0  0  0
    3.2271    1.9041    1.0016 S   0  0  0  0  0  0  0  0  0  0  0  0
    3.0005   -1.0037    0.3404 O   0  0  0  0  0  0  0  0  0  0  0  0
    4.1876   -1.2893    1.0985 C   0  0  0  0  0  0  0  0  0  0  0  0
    3.8654   -1.6672    2.5303 C   0  0  0  0  0  0  0  0  0  0  0  0
    0.6476   -0.1691    1.9634 S   0  0  0  0  0  0  0  0  0  0  0  0
   -0.0876   -1.6473    1.1632 C   0  0  0  0  0  0  0  0  0  0  0  0
   -1.8785   -1.4845    1.0136 S   0  0  0  0  0  0  0  0  0  0  0  0
   -1.9285   -0.3510   -0.7909 P   0  0  0  0  0  0  0  0  0  0  0  0
   -0.9918   -1.1622   -2.3026 S   0  0  0  0  0  0  0  0  0  0  0  0
   -1.4503    1.1103   -0.4543 O   0  0  0  0  0  0  0  0  0  0  0  0
   -2.0644    1.9245    0.5789 C   0  0  0  0  0  0  0  0  0  0  0  0
   -1.1330    3.0824    0.8692 C   0  0  0  0  0  0  0  0  0  0  0  0
   -3.4908   -0.1446   -0.9955 O   0  0  0  0  0  0  0  0  0  0  0  0
   -4.3431   -1.2392   -1.3911 C   0  0  0  0  0  0  0  0  0  0  0  0
   -5.6739   -0.6584   -1.8231 C   0  0  0  0  0  0  0  0  0  0  0  0
    1.7883    2.5997   -3.1999 H   0  0  0  0  0  0  0  0  0  0  0  0
    0.3232    2.3129   -2.2421 H   0  0  0  0  0  0  0  0  0  0  0  0
    1.7861    2.9336   -1.4585 H   0  0  0  0  0  0  0  0  0  0  0  0
    2.9509    0.7842   -1.9152 H   0  0  0  0  0  0  0  0  0  0  0  0
    1.4946    0.1685   -2.7482 H   0  0  0  0  0  0  0  0  0  0  0  0
    4.6563   -2.1120    0.5569 H   0  0  0  0  0  0  0  0  0  0  0  0
    4.8353   -0.4070    1.0713 H   0  0  0  0  0  0  0  0  0  0  0  0
    3.4121   -0.8201    3.0449 H   0  0  0  0  0  0  0  0  0  0  0  0
    3.1764   -2.5074    2.5565 H   0  0  0  0  0  0  0  0  0  0  0  0
    4.7822   -1.9398    3.0430 H   0  0  0  0  0  0  0  0  0  0  0  0
    0.0935   -2.5031    1.8074 H   0  0  0  0  0  0  0  0  0  0  0  0
    0.3512   -1.7812    0.1749 H   0  0  0  0  0  0  0  0  0  0  0  0
   -3.0297    2.2678    0.2034 H   0  0  0  0  0  0  0  0  0  0  0  0
   -2.2183    1.3055    1.4679 H   0  0  0  0  0  0  0  0  0  0  0  0
   -1.5670    3.7013    1.6477 H   0  0  0  0  0  0  0  0  0  0  0  0
   -0.1656    2.7162    1.2085 H   0  0  0  0  0  0  0  0  0  0  0  0
   -0.9823    3.6802   -0.0251 H   0  0  0  0  0  0  0  0  0  0  0  0
   -3.8554   -1.7815   -2.2076 H   0  0  0  0  0  0  0  0  0  0  0  0
   -4.4568   -1.9087   -0.5344 H   0  0  0  0  0  0  0  0  0  0  0  0
   -5.5315    0.0181   -2.6611 H   0  0  0  0  0  0  0  0  0  0  0  0
   -6.3333   -1.4661   -2.1230 H   0  0  0  0  0  0  0  0  0  0  0  0
   -6.1254   -0.1116   -1.0006 H   0  0  0  0  0  0  0  0  0  0  0  0
  1  2  1  0  0  0  0
  2  3  1  0  0  0  0
  3  4  1  0  0  0  0
  4  5  2  0  0  0  0
  4  6  1  0  0  0  0
  6  7  1  0  0  0  0
  7  8  1  0  0  0  0
  4  9  1  0  0  0  0
  9 10  1  0  0  0  0
 10 11  1  0  0  0  0
 11 12  1  0  0  0  0
 12 13  2  0  0  0  0
 12 14  2  0  0  0  0
 14 15  1  0  0  0  0
 15 16  1  0  0  0  0
 12 17  2  0  0  0  0
 17 18  1  0  0  0  0
 18 19  1  0  0  0  0
  1 20  1  0  0  0  0
  1 21  1  0  0  0  0
  1 22  1  0  0  0  0
  2 23  1  0  0  0  0
  2 24  1  0  0  0  0
  7 25  1  0  0  0  0
  7 26  1  0  0  0  0
  8 27  1  0  0  0  0
  8 28  1  0  0  0  0
  8 29  1  0  0  0  0
 10 30  1  0  0  0  0
 10 31  1  0  0  0  0
 15 32  1  0  0  0  0
 15 33  1  0  0  0  0
 16 34  1  0  0  0  0
 16 35  1  0  0  0  0
 16 36  1  0  0  0  0
 18 37  1  0  0  0  0
 18 38  1  0  0  0  0
 19 39  1  0  0  0  0
 19 40  1  0  0  0  0
 19 41  1  0  0  0  0
M  END
