 xtb: 6.7.1 (edcfbbe)
          04032520203D

 17 17  0     0  0            999 V2000
   -1.8643   -1.4124   -0.0010 C   0  0  0  0  0  0  0  0  0  0  0  0
   -0.5465   -0.6933    0.0040 C   0  0  0  0  0  0  0  0  0  0  0  0
    0.6445   -1.3983    0.0002 C   0  0  0  0  0  0  0  0  0  0  0  0
    1.8715   -0.7544   -0.0024 C   0  0  0  0  0  0  0  0  0  0  0  0
    1.9109    0.6285   -0.0019 C   0  0  0  0  0  0  0  0  0  0  0  0
    0.7352    1.3528    0.0077 C   0  0  0  0  0  0  0  0  0  0  0  0
   -0.5046    0.7120    0.0114 C   0  0  0  0  0  0  0  0  0  0  0  0
   -1.6646    1.4558   -0.0510 N   0  0  0  0  0  0  0  0  0  0  0  0
   -1.7070   -2.4865   -0.0501 H   0  0  0  0  0  0  0  0  0  0  0  0
   -2.4302   -1.1935    0.9054 H   0  0  0  0  0  0  0  0  0  0  0  0
   -2.4616   -1.1099   -0.8598 H   0  0  0  0  0  0  0  0  0  0  0  0
    0.6129   -2.4792   -0.0018 H   0  0  0  0  0  0  0  0  0  0  0  0
    2.7860   -1.3285   -0.0057 H   0  0  0  0  0  0  0  0  0  0  0  0
    2.8595    1.1460   -0.0042 H   0  0  0  0  0  0  0  0  0  0  0  0
    0.7664    2.4335    0.0102 H   0  0  0  0  0  0  0  0  0  0  0  0
   -1.5698    2.4253    0.2036 H   0  0  0  0  0  0  0  0  0  0  0  0
   -2.4984    1.0120    0.2959 H   0  0  0  0  0  0  0  0  0  0  0  0
  1  2  1  0  0  0  0
  2  3  4  0  0  0  0
  3  4  4  0  0  0  0
  4  5  4  0  0  0  0
  5  6  4  0  0  0  0
  2  7  4  0  0  0  0
  6  7  4  0  0  0  0
  7  8  1  0  0  0  0
  1  9  1  0  0  0  0
  1 10  1  0  0  0  0
  1 11  1  0  0  0  0
  3 12  1  0  0  0  0
  4 13  1  0  0  0  0
  5 14  1  0  0  0  0
  6 15  1  0  0  0  0
  8 16  1  0  0  0  0
  8 17  1  0  0  0  0
M  END
