 xtb: 6.7.1 (edcfbbe)
          04092505203D

 41 40  0     0  0            999 V2000
    5.7931   -0.3508    0.2227 C   0  0  0  0  0  0  0  0  0  0  0  0
    4.4467   -0.7742   -0.3287 C   0  0  0  0  0  0  0  0  0  0  0  0
    3.4323    0.0207    0.3161 O   0  0  0  0  0  0  0  0  0  0  0  0
    1.9709    0.1599   -0.2952 P   0  0  0  0  0  0  0  0  0  0  0  0
    1.9358    0.5785   -2.2139 S   0  0  0  0  0  0  0  0  0  0  0  0
    1.3222    1.1902    0.7127 O   0  0  0  0  0  0  0  0  0  0  0  0
    1.3706    2.6146    0.4996 C   0  0  0  0  0  0  0  0  0  0  0  0
    2.7833    3.1505    0.5785 C   0  0  0  0  0  0  0  0  0  0  0  0
    1.0965   -1.6622    0.2863 S   0  0  0  0  0  0  0  0  0  0  0  0
   -0.1532   -1.8884   -1.0276 C   0  0  0  0  0  0  0  0  0  0  0  0
   -1.8373   -1.9840   -0.3847 S   0  0  0  0  0  0  0  0  0  0  0  0
   -2.0510    0.0544    0.1773 P   0  0  0  0  0  0  0  0  0  0  0  0
   -1.4446    1.3791   -1.1296 S   0  0  0  0  0  0  0  0  0  0  0  0
   -1.2976    0.2128    1.5524 O   0  0  0  0  0  0  0  0  0  0  0  0
   -1.3747   -0.6920    2.6815 C   0  0  0  0  0  0  0  0  0  0  0  0
   -2.6148   -0.4493    3.5152 C   0  0  0  0  0  0  0  0  0  0  0  0
   -3.5817    0.1730    0.5859 O   0  0  0  0  0  0  0  0  0  0  0  0
   -4.6181    0.4793   -0.3642 C   0  0  0  0  0  0  0  0  0  0  0  0
   -4.8386   -0.6429   -1.3577 C   0  0  0  0  0  0  0  0  0  0  0  0
    5.8093   -0.4841    1.3004 H   0  0  0  0  0  0  0  0  0  0  0  0
    6.5691   -0.9605   -0.2281 H   0  0  0  0  0  0  0  0  0  0  0  0
    5.9808    0.6945   -0.0059 H   0  0  0  0  0  0  0  0  0  0  0  0
    4.2412   -1.8267   -0.1154 H   0  0  0  0  0  0  0  0  0  0  0  0
    4.3830   -0.6090   -1.4097 H   0  0  0  0  0  0  0  0  0  0  0  0
    0.9199    2.8344   -0.4743 H   0  0  0  0  0  0  0  0  0  0  0  0
    0.7327    3.0139    1.2898 H   0  0  0  0  0  0  0  0  0  0  0  0
    3.2466    2.8498    1.5146 H   0  0  0  0  0  0  0  0  0  0  0  0
    3.3718    2.7586   -0.2505 H   0  0  0  0  0  0  0  0  0  0  0  0
    2.7593    4.2338    0.5134 H   0  0  0  0  0  0  0  0  0  0  0  0
    0.0407   -2.8414   -1.5127 H   0  0  0  0  0  0  0  0  0  0  0  0
   -0.0667   -1.0601   -1.7367 H   0  0  0  0  0  0  0  0  0  0  0  0
   -1.3424   -1.7211    2.3120 H   0  0  0  0  0  0  0  0  0  0  0  0
   -0.4625   -0.4769    3.2414 H   0  0  0  0  0  0  0  0  0  0  0  0
   -2.5671   -1.0718    4.4034 H   0  0  0  0  0  0  0  0  0  0  0  0
   -2.6688    0.5950    3.8112 H   0  0  0  0  0  0  0  0  0  0  0  0
   -3.5076   -0.7007    2.9493 H   0  0  0  0  0  0  0  0  0  0  0  0
   -5.4983    0.6456    0.2583 H   0  0  0  0  0  0  0  0  0  0  0  0
   -4.3486    1.4051   -0.8819 H   0  0  0  0  0  0  0  0  0  0  0  0
   -5.7201   -0.4250   -1.9522 H   0  0  0  0  0  0  0  0  0  0  0  0
   -3.9801   -0.7288   -2.0217 H   0  0  0  0  0  0  0  0  0  0  0  0
   -4.9766   -1.5877   -0.8383 H   0  0  0  0  0  0  0  0  0  0  0  0
  1  2  1  0  0  0  0
  2  3  1  0  0  0  0
  3  4  2  0  0  0  0
  4  5  2  0  0  0  0
  4  6  2  0  0  0  0
  6  7  1  0  0  0  0
  7  8  1  0  0  0  0
  4  9  1  0  0  0  0
  9 10  1  0  0  0  0
 10 11  1  0  0  0  0
 11 12  1  0  0  0  0
 12 13  2  0  0  0  0
 12 14  2  0  0  0  0
 14 15  1  0  0  0  0
 15 16  1  0  0  0  0
 12 17  2  0  0  0  0
 17 18  1  0  0  0  0
 18 19  1  0  0  0  0
  1 20  1  0  0  0  0
  1 21  1  0  0  0  0
  1 22  1  0  0  0  0
  2 23  1  0  0  0  0
  2 24  1  0  0  0  0
  7 25  1  0  0  0  0
  7 26  1  0  0  0  0
  8 27  1  0  0  0  0
  8 28  1  0  0  0  0
  8 29  1  0  0  0  0
 10 30  1  0  0  0  0
 10 31  1  0  0  0  0
 15 32  1  0  0  0  0
 15 33  1  0  0  0  0
 16 34  1  0  0  0  0
 16 35  1  0  0  0  0
 16 36  1  0  0  0  0
 18 37  1  0  0  0  0
 18 38  1  0  0  0  0
 19 39  1  0  0  0  0
 19 40  1  0  0  0  0
 19 41  1  0  0  0  0
M  END
