 xtb: 6.7.1 (edcfbbe)
          04092505213D

 41 40  0     0  0            999 V2000
    1.5948    0.1682    3.1247 C   0  0  0  0  0  0  0  0  0  0  0  0
    2.1367    0.9906    1.9730 C   0  0  0  0  0  0  0  0  0  0  0  0
    3.0419    0.2487    1.1394 O   0  0  0  0  0  0  0  0  0  0  0  0
    2.6349   -0.9427    0.1656 P   0  0  0  0  0  0  0  0  0  0  0  0
    2.2087   -2.6594    1.0063 S   0  0  0  0  0  0  0  0  0  0  0  0
    3.9282   -1.0998   -0.7143 O   0  0  0  0  0  0  0  0  0  0  0  0
    4.3720   -0.2328   -1.7866 C   0  0  0  0  0  0  0  0  0  0  0  0
    4.4316    1.2273   -1.3940 C   0  0  0  0  0  0  0  0  0  0  0  0
    1.1296   -0.1420   -1.1333 S   0  0  0  0  0  0  0  0  0  0  0  0
   -0.2700   -1.1301   -0.5527 C   0  0  0  0  0  0  0  0  0  0  0  0
   -1.2015   -0.3117    0.7681 S   0  0  0  0  0  0  0  0  0  0  0  0
   -2.5924    0.6908   -0.5050 P   0  0  0  0  0  0  0  0  0  0  0  0
   -1.9296    1.3708   -2.2140 S   0  0  0  0  0  0  0  0  0  0  0  0
   -3.2809    1.7460    0.4645 O   0  0  0  0  0  0  0  0  0  0  0  0
   -2.7763    3.0840    0.6391 C   0  0  0  0  0  0  0  0  0  0  0  0
   -1.3513    3.0999    1.1521 C   0  0  0  0  0  0  0  0  0  0  0  0
   -3.7483   -0.3603   -0.7315 O   0  0  0  0  0  0  0  0  0  0  0  0
   -4.4722   -0.9937    0.3565 C   0  0  0  0  0  0  0  0  0  0  0  0
   -4.1454   -2.4731    0.4036 C   0  0  0  0  0  0  0  0  0  0  0  0
    2.4122   -0.2857    3.6788 H   0  0  0  0  0  0  0  0  0  0  0  0
    1.0248    0.8117    3.7868 H   0  0  0  0  0  0  0  0  0  0  0  0
    0.9438   -0.6231    2.7570 H   0  0  0  0  0  0  0  0  0  0  0  0
    2.7430    1.8239    2.3326 H   0  0  0  0  0  0  0  0  0  0  0  0
    1.3201    1.3718    1.3524 H   0  0  0  0  0  0  0  0  0  0  0  0
    5.3615   -0.6255   -2.0264 H   0  0  0  0  0  0  0  0  0  0  0  0
    3.7000   -0.3791   -2.6362 H   0  0  0  0  0  0  0  0  0  0  0  0
    4.8859    1.7904   -2.2036 H   0  0  0  0  0  0  0  0  0  0  0  0
    3.4289    1.6129   -1.2193 H   0  0  0  0  0  0  0  0  0  0  0  0
    5.0247    1.3512   -0.4917 H   0  0  0  0  0  0  0  0  0  0  0  0
    0.1116   -2.0716   -0.1502 H   0  0  0  0  0  0  0  0  0  0  0  0
   -0.9246   -1.2924   -1.4070 H   0  0  0  0  0  0  0  0  0  0  0  0
   -2.8435    3.6023   -0.3219 H   0  0  0  0  0  0  0  0  0  0  0  0
   -3.4699    3.5302    1.3531 H   0  0  0  0  0  0  0  0  0  0  0  0
   -0.6853    2.6972    0.3889 H   0  0  0  0  0  0  0  0  0  0  0  0
   -1.0583    4.1224    1.3673 H   0  0  0  0  0  0  0  0  0  0  0  0
   -1.2657    2.4998    2.0549 H   0  0  0  0  0  0  0  0  0  0  0  0
   -4.2154   -0.4980    1.2949 H   0  0  0  0  0  0  0  0  0  0  0  0
   -5.5260   -0.8270    0.1295 H   0  0  0  0  0  0  0  0  0  0  0  0
   -4.3304   -2.9267   -0.5663 H   0  0  0  0  0  0  0  0  0  0  0  0
   -3.1031   -2.6290    0.6726 H   0  0  0  0  0  0  0  0  0  0  0  0
   -4.7750   -2.9513    1.1472 H   0  0  0  0  0  0  0  0  0  0  0  0
  1  2  1  0  0  0  0
  2  3  1  0  0  0  0
  3  4  2  0  0  0  0
  4  5  2  0  0  0  0
  4  6  2  0  0  0  0
  6  7  1  0  0  0  0
  7  8  1  0  0  0  0
  4  9  1  0  0  0  0
  9 10  1  0  0  0  0
 10 11  1  0  0  0  0
 11 12  1  0  0  0  0
 12 13  2  0  0  0  0
 12 14  2  0  0  0  0
 14 15  1  0  0  0  0
 15 16  1  0  0  0  0
 12 17  2  0  0  0  0
 17 18  1  0  0  0  0
 18 19  1  0  0  0  0
  1 20  1  0  0  0  0
  1 21  1  0  0  0  0
  1 22  1  0  0  0  0
  2 23  1  0  0  0  0
  2 24  1  0  0  0  0
  7 25  1  0  0  0  0
  7 26  1  0  0  0  0
  8 27  1  0  0  0  0
  8 28  1  0  0  0  0
  8 29  1  0  0  0  0
 10 30  1  0  0  0  0
 10 31  1  0  0  0  0
 15 32  1  0  0  0  0
 15 33  1  0  0  0  0
 16 34  1  0  0  0  0
 16 35  1  0  0  0  0
 16 36  1  0  0  0  0
 18 37  1  0  0  0  0
 18 38  1  0  0  0  0
 19 39  1  0  0  0  0
 19 40  1  0  0  0  0
 19 41  1  0  0  0  0
M  END
