 xtb: 6.7.1 (edcfbbe)
          04092505203D

 41 40  0     0  0            999 V2000
    4.3273   -1.7969   -1.2782 C   0  0  0  0  0  0  0  0  0  0  0  0
    4.6553   -0.5258   -0.5218 C   0  0  0  0  0  0  0  0  0  0  0  0
    3.6322   -0.1852    0.4277 O   0  0  0  0  0  0  0  0  0  0  0  0
    2.1784    0.2949   -0.0163 P   0  0  0  0  0  0  0  0  0  0  0  0
    2.1987    1.4050   -1.6405 S   0  0  0  0  0  0  0  0  0  0  0  0
    1.6449    0.8673    1.3625 O   0  0  0  0  0  0  0  0  0  0  0  0
    2.3024    1.8914    2.1367 C   0  0  0  0  0  0  0  0  0  0  0  0
    2.2396    3.2466    1.4620 C   0  0  0  0  0  0  0  0  0  0  0  0
    1.0188   -1.4575   -0.0972 S   0  0  0  0  0  0  0  0  0  0  0  0
   -0.0368   -1.1093   -1.5517 C   0  0  0  0  0  0  0  0  0  0  0  0
   -1.7765   -1.4578   -1.2432 S   0  0  0  0  0  0  0  0  0  0  0  0
   -2.3103    0.2293   -0.0509 P   0  0  0  0  0  0  0  0  0  0  0  0
   -1.0773    1.7508   -0.1206 S   0  0  0  0  0  0  0  0  0  0  0  0
   -2.6106   -0.2951    1.4226 O   0  0  0  0  0  0  0  0  0  0  0  0
   -1.5958   -0.6536    2.3748 C   0  0  0  0  0  0  0  0  0  0  0  0
   -1.4390   -2.1607    2.4476 C   0  0  0  0  0  0  0  0  0  0  0  0
   -3.7437    0.6367   -0.5441 O   0  0  0  0  0  0  0  0  0  0  0  0
   -4.7900   -0.2600   -0.9984 C   0  0  0  0  0  0  0  0  0  0  0  0
   -5.0896   -1.3660   -0.0111 C   0  0  0  0  0  0  0  0  0  0  0  0
    4.0889   -2.5994   -0.5847 H   0  0  0  0  0  0  0  0  0  0  0  0
    3.4717   -1.6267   -1.9304 H   0  0  0  0  0  0  0  0  0  0  0  0
    5.1798   -2.0833   -1.8854 H   0  0  0  0  0  0  0  0  0  0  0  0
    4.7756    0.3126   -1.2153 H   0  0  0  0  0  0  0  0  0  0  0  0
    5.5524   -0.6382    0.0885 H   0  0  0  0  0  0  0  0  0  0  0  0
    1.7469    1.8928    3.0764 H   0  0  0  0  0  0  0  0  0  0  0  0
    3.3357    1.5836    2.3142 H   0  0  0  0  0  0  0  0  0  0  0  0
    1.2114    3.4762    1.1876 H   0  0  0  0  0  0  0  0  0  0  0  0
    2.6117    4.0079    2.1399 H   0  0  0  0  0  0  0  0  0  0  0  0
    2.8422    3.2506    0.5554 H   0  0  0  0  0  0  0  0  0  0  0  0
    0.2568   -1.7747   -2.3594 H   0  0  0  0  0  0  0  0  0  0  0  0
    0.0975   -0.0608   -1.8309 H   0  0  0  0  0  0  0  0  0  0  0  0
   -0.6541   -0.1624    2.1061 H   0  0  0  0  0  0  0  0  0  0  0  0
   -1.9487   -0.2474    3.3250 H   0  0  0  0  0  0  0  0  0  0  0  0
   -1.0758   -2.5574    1.5021 H   0  0  0  0  0  0  0  0  0  0  0  0
   -0.7215   -2.4040    3.2244 H   0  0  0  0  0  0  0  0  0  0  0  0
   -2.3947   -2.6201    2.6826 H   0  0  0  0  0  0  0  0  0  0  0  0
   -5.6430    0.4073   -1.1308 H   0  0  0  0  0  0  0  0  0  0  0  0
   -4.4854   -0.6709   -1.9638 H   0  0  0  0  0  0  0  0  0  0  0  0
   -5.9474   -1.9304   -0.3636 H   0  0  0  0  0  0  0  0  0  0  0  0
   -4.2361   -2.0360    0.0715 H   0  0  0  0  0  0  0  0  0  0  0  0
   -5.3099   -0.9478    0.9675 H   0  0  0  0  0  0  0  0  0  0  0  0
  1  2  1  0  0  0  0
  2  3  1  0  0  0  0
  3  4  2  0  0  0  0
  4  5  2  0  0  0  0
  4  6  2  0  0  0  0
  6  7  1  0  0  0  0
  7  8  1  0  0  0  0
  4  9  1  0  0  0  0
  9 10  1  0  0  0  0
 10 11  1  0  0  0  0
 11 12  1  0  0  0  0
 12 13  2  0  0  0  0
 12 14  2  0  0  0  0
 14 15  1  0  0  0  0
 15 16  1  0  0  0  0
 12 17  2  0  0  0  0
 17 18  1  0  0  0  0
 18 19  1  0  0  0  0
  1 20  1  0  0  0  0
  1 21  1  0  0  0  0
  1 22  1  0  0  0  0
  2 23  1  0  0  0  0
  2 24  1  0  0  0  0
  7 25  1  0  0  0  0
  7 26  1  0  0  0  0
  8 27  1  0  0  0  0
  8 28  1  0  0  0  0
  8 29  1  0  0  0  0
 10 30  1  0  0  0  0
 10 31  1  0  0  0  0
 15 32  1  0  0  0  0
 15 33  1  0  0  0  0
 16 34  1  0  0  0  0
 16 35  1  0  0  0  0
 16 36  1  0  0  0  0
 18 37  1  0  0  0  0
 18 38  1  0  0  0  0
 19 39  1  0  0  0  0
 19 40  1  0  0  0  0
 19 41  1  0  0  0  0
M  END
