 xtb: 6.7.1 (edcfbbe)
          04092505203D

 41 40  0     0  0            999 V2000
    2.9013   -0.5306    3.2228 C   0  0  0  0  0  0  0  0  0  0  0  0
    1.5443   -0.7518    2.5902 C   0  0  0  0  0  0  0  0  0  0  0  0
    1.3853    0.0371    1.3892 O   0  0  0  0  0  0  0  0  0  0  0  0
    2.2115   -0.2778    0.0787 P   0  0  0  0  0  0  0  0  0  0  0  0
    2.7409   -2.1478   -0.1993 S   0  0  0  0  0  0  0  0  0  0  0  0
    3.4044    0.7616    0.1932 O   0  0  0  0  0  0  0  0  0  0  0  0
    4.5024    0.7707   -0.7411 C   0  0  0  0  0  0  0  0  0  0  0  0
    5.6710    1.4732   -0.0794 C   0  0  0  0  0  0  0  0  0  0  0  0
    0.9761    0.5620   -1.4211 S   0  0  0  0  0  0  0  0  0  0  0  0
   -0.0532   -0.9124   -1.6619 C   0  0  0  0  0  0  0  0  0  0  0  0
   -1.1367   -1.2519   -0.2581 S   0  0  0  0  0  0  0  0  0  0  0  0
   -2.4038    0.4485   -0.5368 P   0  0  0  0  0  0  0  0  0  0  0  0
   -2.7938    0.8792   -2.4020 S   0  0  0  0  0  0  0  0  0  0  0  0
   -1.7079    1.6391    0.2222 O   0  0  0  0  0  0  0  0  0  0  0  0
   -1.4344    1.6247    1.6451 C   0  0  0  0  0  0  0  0  0  0  0  0
   -2.4821    2.4224    2.3928 C   0  0  0  0  0  0  0  0  0  0  0  0
   -3.6624    0.1452    0.3828 O   0  0  0  0  0  0  0  0  0  0  0  0
   -4.7188   -0.7502   -0.0176 C   0  0  0  0  0  0  0  0  0  0  0  0
   -4.4918   -2.1476    0.5247 C   0  0  0  0  0  0  0  0  0  0  0  0
    2.9540   -1.0706    4.1628 H   0  0  0  0  0  0  0  0  0  0  0  0
    3.6808   -0.9009    2.5578 H   0  0  0  0  0  0  0  0  0  0  0  0
    3.0655    0.5287    3.4011 H   0  0  0  0  0  0  0  0  0  0  0  0
    0.7342   -0.4132    3.2369 H   0  0  0  0  0  0  0  0  0  0  0  0
    1.4008   -1.8060    2.3332 H   0  0  0  0  0  0  0  0  0  0  0  0
    4.7501   -0.2643   -1.0002 H   0  0  0  0  0  0  0  0  0  0  0  0
    4.1777    1.2968   -1.6429 H   0  0  0  0  0  0  0  0  0  0  0  0
    5.3812    2.4790    0.2103 H   0  0  0  0  0  0  0  0  0  0  0  0
    5.9848    0.9277    0.8060 H   0  0  0  0  0  0  0  0  0  0  0  0
    6.4980    1.5246   -0.7799 H   0  0  0  0  0  0  0  0  0  0  0  0
    0.5871   -1.7859   -1.7875 H   0  0  0  0  0  0  0  0  0  0  0  0
   -0.6601   -0.7282   -2.5487 H   0  0  0  0  0  0  0  0  0  0  0  0
   -1.4042    0.5868    1.9879 H   0  0  0  0  0  0  0  0  0  0  0  0
   -0.4423    2.0713    1.7398 H   0  0  0  0  0  0  0  0  0  0  0  0
   -3.4577    1.9566    2.2823 H   0  0  0  0  0  0  0  0  0  0  0  0
   -2.2176    2.4598    3.4449 H   0  0  0  0  0  0  0  0  0  0  0  0
   -2.5294    3.4334    1.9977 H   0  0  0  0  0  0  0  0  0  0  0  0
   -5.6245   -0.3072    0.4008 H   0  0  0  0  0  0  0  0  0  0  0  0
   -4.7864   -0.7489   -1.1102 H   0  0  0  0  0  0  0  0  0  0  0  0
   -3.5919   -2.5845    0.0981 H   0  0  0  0  0  0  0  0  0  0  0  0
   -4.3862   -2.1157    1.6054 H   0  0  0  0  0  0  0  0  0  0  0  0
   -5.3436   -2.7687    0.2669 H   0  0  0  0  0  0  0  0  0  0  0  0
  1  2  1  0  0  0  0
  2  3  1  0  0  0  0
  3  4  2  0  0  0  0
  4  5  2  0  0  0  0
  4  6  2  0  0  0  0
  6  7  1  0  0  0  0
  7  8  1  0  0  0  0
  4  9  1  0  0  0  0
  9 10  1  0  0  0  0
 10 11  1  0  0  0  0
 11 12  1  0  0  0  0
 12 13  2  0  0  0  0
 12 14  2  0  0  0  0
 14 15  1  0  0  0  0
 15 16  1  0  0  0  0
 12 17  2  0  0  0  0
 17 18  1  0  0  0  0
 18 19  1  0  0  0  0
  1 20  1  0  0  0  0
  1 21  1  0  0  0  0
  1 22  1  0  0  0  0
  2 23  1  0  0  0  0
  2 24  1  0  0  0  0
  7 25  1  0  0  0  0
  7 26  1  0  0  0  0
  8 27  1  0  0  0  0
  8 28  1  0  0  0  0
  8 29  1  0  0  0  0
 10 30  1  0  0  0  0
 10 31  1  0  0  0  0
 15 32  1  0  0  0  0
 15 33  1  0  0  0  0
 16 34  1  0  0  0  0
 16 35  1  0  0  0  0
 16 36  1  0  0  0  0
 18 37  1  0  0  0  0
 18 38  1  0  0  0  0
 19 39  1  0  0  0  0
 19 40  1  0  0  0  0
 19 41  1  0  0  0  0
M  END
