 xtb: 6.7.1 (edcfbbe)
          04092505213D

 41 40  0     0  0            999 V2000
    5.4223   -1.2866    0.4461 C   0  0  0  0  0  0  0  0  0  0  0  0
    4.8319   -1.1672   -0.9431 C   0  0  0  0  0  0  0  0  0  0  0  0
    3.4025   -1.3562   -0.9272 O   0  0  0  0  0  0  0  0  0  0  0  0
    2.4220   -0.2821   -0.3074 P   0  0  0  0  0  0  0  0  0  0  0  0
    3.0293    1.5793   -0.4721 S   0  0  0  0  0  0  0  0  0  0  0  0
    2.2385   -0.8748    1.1583 O   0  0  0  0  0  0  0  0  0  0  0  0
    1.2316   -0.4954    2.1114 C   0  0  0  0  0  0  0  0  0  0  0  0
    1.4504    0.8977    2.6690 C   0  0  0  0  0  0  0  0  0  0  0  0
    0.6519   -0.8106   -1.3576 S   0  0  0  0  0  0  0  0  0  0  0  0
    0.0303    0.8651   -1.6709 C   0  0  0  0  0  0  0  0  0  0  0  0
   -0.7926    1.6018   -0.2376 S   0  0  0  0  0  0  0  0  0  0  0  0
   -2.4859    0.3350   -0.2825 P   0  0  0  0  0  0  0  0  0  0  0  0
   -3.1925   -0.1598   -2.0365 S   0  0  0  0  0  0  0  0  0  0  0  0
   -3.5716    1.1019    0.5755 O   0  0  0  0  0  0  0  0  0  0  0  0
   -3.3063    1.9400    1.7254 C   0  0  0  0  0  0  0  0  0  0  0  0
   -2.7977    1.1468    2.9106 C   0  0  0  0  0  0  0  0  0  0  0  0
   -1.9473   -0.8980    0.5887 O   0  0  0  0  0  0  0  0  0  0  0  0
   -2.4085   -2.2421    0.3753 C   0  0  0  0  0  0  0  0  0  0  0  0
   -3.7956   -2.4370    0.9524 C   0  0  0  0  0  0  0  0  0  0  0  0
    5.1419   -2.2366    0.8928 H   0  0  0  0  0  0  0  0  0  0  0  0
    6.5039   -1.2170    0.3871 H   0  0  0  0  0  0  0  0  0  0  0  0
    5.0469   -0.4788    1.0731 H   0  0  0  0  0  0  0  0  0  0  0  0
    5.1933   -1.9515   -1.6093 H   0  0  0  0  0  0  0  0  0  0  0  0
    5.0495   -0.1839   -1.3726 H   0  0  0  0  0  0  0  0  0  0  0  0
    0.2485   -0.5796    1.6378 H   0  0  0  0  0  0  0  0  0  0  0  0
    1.3249   -1.2526    2.8926 H   0  0  0  0  0  0  0  0  0  0  0  0
    2.4643    0.9937    3.0486 H   0  0  0  0  0  0  0  0  0  0  0  0
    1.2939    1.6501    1.8986 H   0  0  0  0  0  0  0  0  0  0  0  0
    0.7493    1.0730    3.4788 H   0  0  0  0  0  0  0  0  0  0  0  0
   -0.6818    0.7859   -2.4921 H   0  0  0  0  0  0  0  0  0  0  0  0
    0.8621    1.5241   -1.9207 H   0  0  0  0  0  0  0  0  0  0  0  0
   -2.5867    2.7092    1.4323 H   0  0  0  0  0  0  0  0  0  0  0  0
   -4.2749    2.3984    1.9307 H   0  0  0  0  0  0  0  0  0  0  0  0
   -3.5053    0.3647    3.1723 H   0  0  0  0  0  0  0  0  0  0  0  0
   -1.8376    0.6940    2.6741 H   0  0  0  0  0  0  0  0  0  0  0  0
   -2.6761    1.8160    3.7566 H   0  0  0  0  0  0  0  0  0  0  0  0
   -2.4018   -2.4489   -0.6997 H   0  0  0  0  0  0  0  0  0  0  0  0
   -1.6657   -2.8673    0.8728 H   0  0  0  0  0  0  0  0  0  0  0  0
   -4.4936   -1.7630    0.4558 H   0  0  0  0  0  0  0  0  0  0  0  0
   -4.1156   -3.4611    0.7888 H   0  0  0  0  0  0  0  0  0  0  0  0
   -3.7960   -2.2244    2.0180 H   0  0  0  0  0  0  0  0  0  0  0  0
  1  2  1  0  0  0  0
  2  3  1  0  0  0  0
  3  4  2  0  0  0  0
  4  5  2  0  0  0  0
  4  6  2  0  0  0  0
  6  7  1  0  0  0  0
  7  8  1  0  0  0  0
  4  9  1  0  0  0  0
  9 10  1  0  0  0  0
 10 11  1  0  0  0  0
 11 12  1  0  0  0  0
 12 13  2  0  0  0  0
 12 14  2  0  0  0  0
 14 15  1  0  0  0  0
 15 16  1  0  0  0  0
 12 17  1  0  0  0  0
 17 18  1  0  0  0  0
 18 19  1  0  0  0  0
  1 20  1  0  0  0  0
  1 21  1  0  0  0  0
  1 22  1  0  0  0  0
  2 23  1  0  0  0  0
  2 24  1  0  0  0  0
  7 25  1  0  0  0  0
  7 26  1  0  0  0  0
  8 27  1  0  0  0  0
  8 28  1  0  0  0  0
  8 29  1  0  0  0  0
 10 30  1  0  0  0  0
 10 31  1  0  0  0  0
 15 32  1  0  0  0  0
 15 33  1  0  0  0  0
 16 34  1  0  0  0  0
 16 35  1  0  0  0  0
 16 36  1  0  0  0  0
 18 37  1  0  0  0  0
 18 38  1  0  0  0  0
 19 39  1  0  0  0  0
 19 40  1  0  0  0  0
 19 41  1  0  0  0  0
M  END
