 xtb: 6.7.1 (edcfbbe)
          04092505203D

 41 40  0     0  0            999 V2000
    3.0673    1.4301    2.9454 C   0  0  0  0  0  0  0  0  0  0  0  0
    1.7010    0.8865    2.5856 C   0  0  0  0  0  0  0  0  0  0  0  0
    1.5171    0.8509    1.1556 O   0  0  0  0  0  0  0  0  0  0  0  0
    2.2642   -0.2096    0.2429 P   0  0  0  0  0  0  0  0  0  0  0  0
    2.6968   -1.8913    1.1617 S   0  0  0  0  0  0  0  0  0  0  0  0
    3.4695    0.6710   -0.2987 O   0  0  0  0  0  0  0  0  0  0  0  0
    4.2283    0.4168   -1.4945 C   0  0  0  0  0  0  0  0  0  0  0  0
    4.7441   -1.0049   -1.5772 C   0  0  0  0  0  0  0  0  0  0  0  0
    0.9648   -0.3533   -1.4231 S   0  0  0  0  0  0  0  0  0  0  0  0
   -0.0943   -1.6479   -0.7262 C   0  0  0  0  0  0  0  0  0  0  0  0
   -1.1392   -1.0565    0.6251 S   0  0  0  0  0  0  0  0  0  0  0  0
   -2.3330    0.2520   -0.5749 P   0  0  0  0  0  0  0  0  0  0  0  0
   -2.7034   -0.3512   -2.3949 S   0  0  0  0  0  0  0  0  0  0  0  0
   -1.5768    1.6363   -0.5493 O   0  0  0  0  0  0  0  0  0  0  0  0
   -1.3157    2.3753    0.6685 C   0  0  0  0  0  0  0  0  0  0  0  0
   -2.3225    3.4942    0.8366 C   0  0  0  0  0  0  0  0  0  0  0  0
   -3.6024    0.5381    0.3387 O   0  0  0  0  0  0  0  0  0  0  0  0
   -4.7785   -0.2919    0.3117 C   0  0  0  0  0  0  0  0  0  0  0  0
   -4.5131   -1.6899    0.8305 C   0  0  0  0  0  0  0  0  0  0  0  0
    3.1578    1.4993    4.0248 H   0  0  0  0  0  0  0  0  0  0  0  0
    3.8375    0.7595    2.5654 H   0  0  0  0  0  0  0  0  0  0  0  0
    3.2108    2.4122    2.5033 H   0  0  0  0  0  0  0  0  0  0  0  0
    0.8982    1.5320    2.9437 H   0  0  0  0  0  0  0  0  0  0  0  0
    1.5684   -0.1261    2.9804 H   0  0  0  0  0  0  0  0  0  0  0  0
    3.5934    0.6483   -2.3547 H   0  0  0  0  0  0  0  0  0  0  0  0
    5.0475    1.1358   -1.4357 H   0  0  0  0  0  0  0  0  0  0  0  0
    5.3799   -1.1069   -2.4508 H   0  0  0  0  0  0  0  0  0  0  0  0
    5.3143   -1.2555   -0.6857 H   0  0  0  0  0  0  0  0  0  0  0  0
    3.9116   -1.7025   -1.6624 H   0  0  0  0  0  0  0  0  0  0  0  0
    0.5264   -2.4459   -0.3174 H   0  0  0  0  0  0  0  0  0  0  0  0
   -0.7230   -2.0039   -1.5421 H   0  0  0  0  0  0  0  0  0  0  0  0
   -1.3458    1.6829    1.5147 H   0  0  0  0  0  0  0  0  0  0  0  0
   -0.3013    2.7607    0.5451 H   0  0  0  0  0  0  0  0  0  0  0  0
   -2.0623    4.0783    1.7137 H   0  0  0  0  0  0  0  0  0  0  0  0
   -2.3120    4.1366   -0.0396 H   0  0  0  0  0  0  0  0  0  0  0  0
   -3.3216    3.0849    0.9599 H   0  0  0  0  0  0  0  0  0  0  0  0
   -5.4877    0.2435    0.9446 H   0  0  0  0  0  0  0  0  0  0  0  0
   -5.1492   -0.3277   -0.7171 H   0  0  0  0  0  0  0  0  0  0  0  0
   -4.0342   -1.6496    1.8057 H   0  0  0  0  0  0  0  0  0  0  0  0
   -5.4539   -2.2248    0.9124 H   0  0  0  0  0  0  0  0  0  0  0  0
   -3.8628   -2.2267    0.1416 H   0  0  0  0  0  0  0  0  0  0  0  0
  1  2  1  0  0  0  0
  2  3  1  0  0  0  0
  3  4  2  0  0  0  0
  4  5  2  0  0  0  0
  4  6  2  0  0  0  0
  6  7  1  0  0  0  0
  7  8  1  0  0  0  0
  4  9  1  0  0  0  0
  9 10  1  0  0  0  0
 10 11  1  0  0  0  0
 11 12  1  0  0  0  0
 12 13  2  0  0  0  0
 12 14  2  0  0  0  0
 14 15  1  0  0  0  0
 15 16  1  0  0  0  0
 12 17  2  0  0  0  0
 17 18  1  0  0  0  0
 18 19  1  0  0  0  0
  1 20  1  0  0  0  0
  1 21  1  0  0  0  0
  1 22  1  0  0  0  0
  2 23  1  0  0  0  0
  2 24  1  0  0  0  0
  7 25  1  0  0  0  0
  7 26  1  0  0  0  0
  8 27  1  0  0  0  0
  8 28  1  0  0  0  0
  8 29  1  0  0  0  0
 10 30  1  0  0  0  0
 10 31  1  0  0  0  0
 15 32  1  0  0  0  0
 15 33  1  0  0  0  0
 16 34  1  0  0  0  0
 16 35  1  0  0  0  0
 16 36  1  0  0  0  0
 18 37  1  0  0  0  0
 18 38  1  0  0  0  0
 19 39  1  0  0  0  0
 19 40  1  0  0  0  0
 19 41  1  0  0  0  0
M  END
