 xtb: 6.7.1 (edcfbbe)
          04092505213D

 41 40  0     0  0            999 V2000
    2.8713    0.7909   -2.0192 C   0  0  0  0  0  0  0  0  0  0  0  0
    2.2712    1.6270   -0.9100 C   0  0  0  0  0  0  0  0  0  0  0  0
    1.2836    0.9035   -0.1247 O   0  0  0  0  0  0  0  0  0  0  0  0
    1.6132   -0.2920    0.8540 P   0  0  0  0  0  0  0  0  0  0  0  0
    0.4657   -0.3659    2.4407 S   0  0  0  0  0  0  0  0  0  0  0  0
    3.1434   -0.0503    1.1952 O   0  0  0  0  0  0  0  0  0  0  0  0
    3.8225   -0.8621    2.1750 C   0  0  0  0  0  0  0  0  0  0  0  0
    5.0816   -0.1308    2.5935 C   0  0  0  0  0  0  0  0  0  0  0  0
    1.6883   -2.0718   -0.3277 S   0  0  0  0  0  0  0  0  0  0  0  0
    0.1932   -1.8593   -1.3314 C   0  0  0  0  0  0  0  0  0  0  0  0
   -1.3331   -1.6365   -0.3723 S   0  0  0  0  0  0  0  0  0  0  0  0
   -1.7809    0.3674   -0.8644 P   0  0  0  0  0  0  0  0  0  0  0  0
   -0.9289    1.1575   -2.4284 S   0  0  0  0  0  0  0  0  0  0  0  0
   -1.5242    1.0835    0.5399 O   0  0  0  0  0  0  0  0  0  0  0  0
   -1.3535    2.5057    0.6577 C   0  0  0  0  0  0  0  0  0  0  0  0
   -2.6624    3.2477    0.4792 C   0  0  0  0  0  0  0  0  0  0  0  0
   -3.3583    0.3576   -1.0682 O   0  0  0  0  0  0  0  0  0  0  0  0
   -4.2738   -0.1843   -0.0859 C   0  0  0  0  0  0  0  0  0  0  0  0
   -4.8887   -1.4720   -0.5971 C   0  0  0  0  0  0  0  0  0  0  0  0
    3.5830    1.4022   -2.5652 H   0  0  0  0  0  0  0  0  0  0  0  0
    3.3872   -0.0756   -1.6121 H   0  0  0  0  0  0  0  0  0  0  0  0
    2.0958    0.4626   -2.7073 H   0  0  0  0  0  0  0  0  0  0  0  0
    1.6999    2.4628   -1.3178 H   0  0  0  0  0  0  0  0  0  0  0  0
    3.0400    1.9904   -0.2277 H   0  0  0  0  0  0  0  0  0  0  0  0
    3.1478   -1.0219    3.0227 H   0  0  0  0  0  0  0  0  0  0  0  0
    4.0519   -1.8263    1.7139 H   0  0  0  0  0  0  0  0  0  0  0  0
    5.6157   -0.7341    3.3201 H   0  0  0  0  0  0  0  0  0  0  0  0
    5.7181    0.0398    1.7303 H   0  0  0  0  0  0  0  0  0  0  0  0
    4.8271    0.8258    3.0412 H   0  0  0  0  0  0  0  0  0  0  0  0
    0.0946   -2.7848   -1.8937 H   0  0  0  0  0  0  0  0  0  0  0  0
    0.3057   -1.0027   -2.0010 H   0  0  0  0  0  0  0  0  0  0  0  0
   -0.9399    2.6367    1.6596 H   0  0  0  0  0  0  0  0  0  0  0  0
   -0.6195    2.8275   -0.0877 H   0  0  0  0  0  0  0  0  0  0  0  0
   -2.4931    4.3095    0.6284 H   0  0  0  0  0  0  0  0  0  0  0  0
   -3.0450    3.0870   -0.5285 H   0  0  0  0  0  0  0  0  0  0  0  0
   -3.3963    2.8957    1.1998 H   0  0  0  0  0  0  0  0  0  0  0  0
   -3.7406   -0.3421    0.8564 H   0  0  0  0  0  0  0  0  0  0  0  0
   -5.0340    0.5878    0.0484 H   0  0  0  0  0  0  0  0  0  0  0  0
   -5.3517   -1.3000   -1.5648 H   0  0  0  0  0  0  0  0  0  0  0  0
   -4.1293   -2.2431   -0.7005 H   0  0  0  0  0  0  0  0  0  0  0  0
   -5.6422   -1.8078    0.1082 H   0  0  0  0  0  0  0  0  0  0  0  0
  1  2  1  0  0  0  0
  2  3  1  0  0  0  0
  3  4  2  0  0  0  0
  4  5  2  0  0  0  0
  4  6  2  0  0  0  0
  6  7  1  0  0  0  0
  7  8  1  0  0  0  0
  4  9  1  0  0  0  0
  9 10  1  0  0  0  0
 10 11  1  0  0  0  0
 11 12  1  0  0  0  0
 12 13  2  0  0  0  0
 12 14  1  0  0  0  0
 14 15  1  0  0  0  0
 15 16  1  0  0  0  0
 12 17  2  0  0  0  0
 17 18  1  0  0  0  0
 18 19  1  0  0  0  0
  1 20  1  0  0  0  0
  1 21  1  0  0  0  0
  1 22  1  0  0  0  0
  2 23  1  0  0  0  0
  2 24  1  0  0  0  0
  7 25  1  0  0  0  0
  7 26  1  0  0  0  0
  8 27  1  0  0  0  0
  8 28  1  0  0  0  0
  8 29  1  0  0  0  0
 10 30  1  0  0  0  0
 10 31  1  0  0  0  0
 15 32  1  0  0  0  0
 15 33  1  0  0  0  0
 16 34  1  0  0  0  0
 16 35  1  0  0  0  0
 16 36  1  0  0  0  0
 18 37  1  0  0  0  0
 18 38  1  0  0  0  0
 19 39  1  0  0  0  0
 19 40  1  0  0  0  0
 19 41  1  0  0  0  0
M  END
