 xtb: 6.7.1 (edcfbbe)
          04092505203D

 41 40  0     0  0            999 V2000
    4.7970   -1.5135   -0.1406 C   0  0  0  0  0  0  0  0  0  0  0  0
    4.5558   -0.1865   -0.8335 C   0  0  0  0  0  0  0  0  0  0  0  0
    3.5484    0.5871   -0.1550 O   0  0  0  0  0  0  0  0  0  0  0  0
    2.0203    0.5892   -0.6003 P   0  0  0  0  0  0  0  0  0  0  0  0
    1.7556    0.7264   -2.5364 S   0  0  0  0  0  0  0  0  0  0  0  0
    1.4711    1.8225    0.2126 O   0  0  0  0  0  0  0  0  0  0  0  0
    1.9921    2.2933    1.4798 C   0  0  0  0  0  0  0  0  0  0  0  0
    1.7692    1.2950    2.5954 C   0  0  0  0  0  0  0  0  0  0  0  0
    1.2443   -1.2025    0.2561 S   0  0  0  0  0  0  0  0  0  0  0  0
    0.0953   -1.7458   -1.0448 C   0  0  0  0  0  0  0  0  0  0  0  0
   -1.5884   -2.0048   -0.4428 S   0  0  0  0  0  0  0  0  0  0  0  0
   -1.9915   -0.0172    0.2002 P   0  0  0  0  0  0  0  0  0  0  0  0
   -1.4361    1.4299   -0.9969 S   0  0  0  0  0  0  0  0  0  0  0  0
   -1.3240    0.0937    1.6255 O   0  0  0  0  0  0  0  0  0  0  0  0
   -1.6253   -0.8289    2.7080 C   0  0  0  0  0  0  0  0  0  0  0  0
   -2.5684   -0.1833    3.7014 C   0  0  0  0  0  0  0  0  0  0  0  0
   -3.5404   -0.0561    0.5548 O   0  0  0  0  0  0  0  0  0  0  0  0
   -4.5694    0.2067   -0.4149 C   0  0  0  0  0  0  0  0  0  0  0  0
   -4.6237   -0.8484   -1.5005 C   0  0  0  0  0  0  0  0  0  0  0  0
    5.0543   -1.3479    0.9017 H   0  0  0  0  0  0  0  0  0  0  0  0
    3.9102   -2.1400   -0.1877 H   0  0  0  0  0  0  0  0  0  0  0  0
    5.6181   -2.0224   -0.6351 H   0  0  0  0  0  0  0  0  0  0  0  0
    4.2496   -0.3253   -1.8757 H   0  0  0  0  0  0  0  0  0  0  0  0
    5.4479    0.4421   -0.8008 H   0  0  0  0  0  0  0  0  0  0  0  0
    3.0530    2.5160    1.3520 H   0  0  0  0  0  0  0  0  0  0  0  0
    1.4334    3.2159    1.6463 H   0  0  0  0  0  0  0  0  0  0  0  0
    2.3303    0.3821    2.4014 H   0  0  0  0  0  0  0  0  0  0  0  0
    2.1034    1.7284    3.5328 H   0  0  0  0  0  0  0  0  0  0  0  0
    0.7121    1.0525    2.6652 H   0  0  0  0  0  0  0  0  0  0  0  0
    0.4285   -2.7109   -1.4178 H   0  0  0  0  0  0  0  0  0  0  0  0
    0.1008   -0.9947   -1.8402 H   0  0  0  0  0  0  0  0  0  0  0  0
   -2.0565   -1.7408    2.2869 H   0  0  0  0  0  0  0  0  0  0  0  0
   -0.6571   -1.0573    3.1585 H   0  0  0  0  0  0  0  0  0  0  0  0
   -3.5204    0.0373    3.2260 H   0  0  0  0  0  0  0  0  0  0  0  0
   -2.7300   -0.8660    4.5296 H   0  0  0  0  0  0  0  0  0  0  0  0
   -2.1420    0.7427    4.0776 H   0  0  0  0  0  0  0  0  0  0  0  0
   -5.4856    0.2219    0.1772 H   0  0  0  0  0  0  0  0  0  0  0  0
   -4.3888    1.1952   -0.8483 H   0  0  0  0  0  0  0  0  0  0  0  0
   -4.6761   -1.8419   -1.0622 H   0  0  0  0  0  0  0  0  0  0  0  0
   -5.4988   -0.6795   -2.1198 H   0  0  0  0  0  0  0  0  0  0  0  0
   -3.7343   -0.7856   -2.1259 H   0  0  0  0  0  0  0  0  0  0  0  0
  1  2  1  0  0  0  0
  2  3  1  0  0  0  0
  3  4  2  0  0  0  0
  4  5  2  0  0  0  0
  4  6  2  0  0  0  0
  6  7  1  0  0  0  0
  7  8  1  0  0  0  0
  4  9  1  0  0  0  0
  9 10  1  0  0  0  0
 10 11  1  0  0  0  0
 11 12  1  0  0  0  0
 12 13  2  0  0  0  0
 12 14  2  0  0  0  0
 14 15  1  0  0  0  0
 15 16  1  0  0  0  0
 12 17  2  0  0  0  0
 17 18  1  0  0  0  0
 18 19  1  0  0  0  0
  1 20  1  0  0  0  0
  1 21  1  0  0  0  0
  1 22  1  0  0  0  0
  2 23  1  0  0  0  0
  2 24  1  0  0  0  0
  7 25  1  0  0  0  0
  7 26  1  0  0  0  0
  8 27  1  0  0  0  0
  8 28  1  0  0  0  0
  8 29  1  0  0  0  0
 10 30  1  0  0  0  0
 10 31  1  0  0  0  0
 15 32  1  0  0  0  0
 15 33  1  0  0  0  0
 16 34  1  0  0  0  0
 16 35  1  0  0  0  0
 16 36  1  0  0  0  0
 18 37  1  0  0  0  0
 18 38  1  0  0  0  0
 19 39  1  0  0  0  0
 19 40  1  0  0  0  0
 19 41  1  0  0  0  0
M  END
