 xtb: 6.7.1 (edcfbbe)
          04092505213D

 41 40  0     0  0            999 V2000
    4.4342   -1.0815   -2.4627 C   0  0  0  0  0  0  0  0  0  0  0  0
    4.5561   -0.2056   -1.2319 C   0  0  0  0  0  0  0  0  0  0  0  0
    3.4683    0.7559   -1.1956 O   0  0  0  0  0  0  0  0  0  0  0  0
    2.2827    0.6904   -0.1607 P   0  0  0  0  0  0  0  0  0  0  0  0
    1.0414    2.1628   -0.4970 S   0  0  0  0  0  0  0  0  0  0  0  0
    3.0739    0.7080    1.2144 O   0  0  0  0  0  0  0  0  0  0  0  0
    2.4704    0.7422    2.5219 C   0  0  0  0  0  0  0  0  0  0  0  0
    2.4106   -0.6460    3.1268 C   0  0  0  0  0  0  0  0  0  0  0  0
    1.4861   -1.2780   -0.3115 S   0  0  0  0  0  0  0  0  0  0  0  0
    0.2048   -0.9485   -1.5661 C   0  0  0  0  0  0  0  0  0  0  0  0
   -1.3927   -1.6771   -1.1319 S   0  0  0  0  0  0  0  0  0  0  0  0
   -2.0820   -0.2657    0.2714 P   0  0  0  0  0  0  0  0  0  0  0  0
   -1.0349    0.1455    1.8672 S   0  0  0  0  0  0  0  0  0  0  0  0
   -3.4996   -0.8266    0.7033 O   0  0  0  0  0  0  0  0  0  0  0  0
   -4.5389   -1.1823   -0.2413 C   0  0  0  0  0  0  0  0  0  0  0  0
   -4.6189   -2.6870   -0.4024 C   0  0  0  0  0  0  0  0  0  0  0  0
   -2.3288    0.9531   -0.7381 O   0  0  0  0  0  0  0  0  0  0  0  0
   -2.4830    2.3069   -0.2799 C   0  0  0  0  0  0  0  0  0  0  0  0
   -3.7914    2.5039    0.4572 C   0  0  0  0  0  0  0  0  0  0  0  0
    3.5576   -1.7205   -2.3909 H   0  0  0  0  0  0  0  0  0  0  0  0
    4.3507   -0.4621   -3.3514 H   0  0  0  0  0  0  0  0  0  0  0  0
    5.3196   -1.7042   -2.5420 H   0  0  0  0  0  0  0  0  0  0  0  0
    5.4624    0.4008   -1.2619 H   0  0  0  0  0  0  0  0  0  0  0  0
    4.5418   -0.7991   -0.3157 H   0  0  0  0  0  0  0  0  0  0  0  0
    3.1184    1.4008    3.1032 H   0  0  0  0  0  0  0  0  0  0  0  0
    1.4714    1.1822    2.4528 H   0  0  0  0  0  0  0  0  0  0  0  0
    2.0439   -0.5677    4.1449 H   0  0  0  0  0  0  0  0  0  0  0  0
    1.7285   -1.2779    2.5626 H   0  0  0  0  0  0  0  0  0  0  0  0
    3.3984   -1.0977    3.1297 H   0  0  0  0  0  0  0  0  0  0  0  0
    0.4978   -1.4204   -2.5001 H   0  0  0  0  0  0  0  0  0  0  0  0
    0.0980    0.1335   -1.6780 H   0  0  0  0  0  0  0  0  0  0  0  0
   -5.4556   -0.7841    0.1976 H   0  0  0  0  0  0  0  0  0  0  0  0
   -4.3398   -0.6894   -1.1961 H   0  0  0  0  0  0  0  0  0  0  0  0
   -4.7627   -3.1559    0.5670 H   0  0  0  0  0  0  0  0  0  0  0  0
   -5.4575   -2.9300   -1.0472 H   0  0  0  0  0  0  0  0  0  0  0  0
   -3.7034   -3.0719   -0.8465 H   0  0  0  0  0  0  0  0  0  0  0  0
   -1.6308    2.5589    0.3591 H   0  0  0  0  0  0  0  0  0  0  0  0
   -2.4306    2.9018   -1.1930 H   0  0  0  0  0  0  0  0  0  0  0  0
   -3.8038    1.8890    1.3570 H   0  0  0  0  0  0  0  0  0  0  0  0
   -3.8861    3.5468    0.7426 H   0  0  0  0  0  0  0  0  0  0  0  0
   -4.6295    2.2259   -0.1769 H   0  0  0  0  0  0  0  0  0  0  0  0
  1  2  1  0  0  0  0
  2  3  1  0  0  0  0
  3  4  2  0  0  0  0
  4  5  2  0  0  0  0
  4  6  2  0  0  0  0
  6  7  1  0  0  0  0
  7  8  1  0  0  0  0
  4  9  1  0  0  0  0
  9 10  1  0  0  0  0
 10 11  1  0  0  0  0
 11 12  1  0  0  0  0
 12 13  2  0  0  0  0
 12 14  2  0  0  0  0
 14 15  1  0  0  0  0
 15 16  1  0  0  0  0
 12 17  1  0  0  0  0
 17 18  1  0  0  0  0
 18 19  1  0  0  0  0
  1 20  1  0  0  0  0
  1 21  1  0  0  0  0
  1 22  1  0  0  0  0
  2 23  1  0  0  0  0
  2 24  1  0  0  0  0
  7 25  1  0  0  0  0
  7 26  1  0  0  0  0
  8 27  1  0  0  0  0
  8 28  1  0  0  0  0
  8 29  1  0  0  0  0
 10 30  1  0  0  0  0
 10 31  1  0  0  0  0
 15 32  1  0  0  0  0
 15 33  1  0  0  0  0
 16 34  1  0  0  0  0
 16 35  1  0  0  0  0
 16 36  1  0  0  0  0
 18 37  1  0  0  0  0
 18 38  1  0  0  0  0
 19 39  1  0  0  0  0
 19 40  1  0  0  0  0
 19 41  1  0  0  0  0
M  END
