 xtb: 6.7.1 (edcfbbe)
          04092507313D

 38 37  0     0  0            999 V2000
    3.8552   -4.0692   -1.5502 C   0  0  0  0  0  0  0  0  0  0  0  0
    2.9244   -3.0329   -2.1591 C   0  0  0  0  0  0  0  0  0  0  0  0
    2.7978   -1.8820   -1.3005 O   0  0  0  0  0  0  0  0  0  0  0  0
    1.9027   -1.9149   -0.3358 C   0  0  0  0  0  0  0  0  0  0  0  0
    1.1601   -2.8451   -0.1127 O   0  0  0  0  0  0  0  0  0  0  0  0
    1.8714   -0.6095    0.4356 C   0  0  0  0  0  0  0  0  0  0  0  0
    1.2063    0.4683   -0.4225 C   0  0  0  0  0  0  0  0  0  0  0  0
    1.8416    0.6903   -1.2869 H   0  0  0  0  0  0  0  0  0  0  0  0
    1.0184    1.7607    0.3577 C   0  0  0  0  0  0  0  0  0  0  0  0
    1.8529    2.1756    1.1245 O   0  0  0  0  0  0  0  0  0  0  0  0
   -0.1156    2.3663    0.0629 O   0  0  0  0  0  0  0  0  0  0  0  0
   -0.3962    3.6289    0.7010 C   0  0  0  0  0  0  0  0  0  0  0  0
    0.2046    4.7767   -0.0917 C   0  0  0  0  0  0  0  0  0  0  0  0
   -0.3539   -0.1070   -1.1716 S   0  0  0  0  0  0  0  0  0  0  0  0
   -1.6964    0.0779    0.4688 P   0  0  0  0  0  0  0  0  0  0  0  0
   -1.0049    0.2743    2.2922 S   0  0  0  0  0  0  0  0  0  0  0  0
   -2.7198    1.2209    0.0966 O   0  0  0  0  0  0  0  0  0  0  0  0
   -3.4224    1.2487   -1.1628 C   0  0  0  0  0  0  0  0  0  0  0  0
   -2.6165   -1.2180    0.2628 O   0  0  0  0  0  0  0  0  0  0  0  0
   -2.1569   -2.5198    0.6415 C   0  0  0  0  0  0  0  0  0  0  0  0
    3.4328   -4.4544   -0.6249 H   0  0  0  0  0  0  0  0  0  0  0  0
    3.9824   -4.8903   -2.2477 H   0  0  0  0  0  0  0  0  0  0  0  0
    4.8240   -3.6249   -1.3388 H   0  0  0  0  0  0  0  0  0  0  0  0
    1.9287   -3.4542   -2.3235 H   0  0  0  0  0  0  0  0  0  0  0  0
    3.3277   -2.6329   -3.0892 H   0  0  0  0  0  0  0  0  0  0  0  0
    2.8842   -0.2862    0.6758 H   0  0  0  0  0  0  0  0  0  0  0  0
    1.3096   -0.7586    1.3598 H   0  0  0  0  0  0  0  0  0  0  0  0
   -1.4851    3.6800    0.7315 H   0  0  0  0  0  0  0  0  0  0  0  0
    0.0050    3.5941    1.7179 H   0  0  0  0  0  0  0  0  0  0  0  0
    1.2896    4.7030   -0.0916 H   0  0  0  0  0  0  0  0  0  0  0  0
   -0.1557    4.7540   -1.1164 H   0  0  0  0  0  0  0  0  0  0  0  0
   -0.0846    5.7147    0.3700 H   0  0  0  0  0  0  0  0  0  0  0  0
   -3.9871    2.1772   -1.1517 H   0  0  0  0  0  0  0  0  0  0  0  0
   -4.0880    0.3909   -1.2345 H   0  0  0  0  0  0  0  0  0  0  0  0
   -2.7078    1.2386   -1.9858 H   0  0  0  0  0  0  0  0  0  0  0  0
   -1.2377   -2.7778    0.1131 H   0  0  0  0  0  0  0  0  0  0  0  0
   -2.9582   -3.2020    0.3712 H   0  0  0  0  0  0  0  0  0  0  0  0
   -1.9727   -2.5500    1.7161 H   0  0  0  0  0  0  0  0  0  0  0  0
  1  2  1  0  0  0  0
  2  3  1  0  0  0  0
  3  4  1  0  0  0  0
  4  5  2  0  0  0  0
  4  6  1  0  0  0  0
  6  7  1  0  0  0  0
  7  8  1  0  0  0  0
  7  9  1  0  0  0  0
  9 10  2  0  0  0  0
  9 11  1  0  0  0  0
 11 12  1  0  0  0  0
 12 13  1  0  0  0  0
  7 14  1  0  0  0  0
 14 15  1  0  0  0  0
 15 16  2  0  0  0  0
 15 17  2  0  0  0  0
 17 18  1  0  0  0  0
 15 19  1  0  0  0  0
 19 20  1  0  0  0  0
  1 21  1  0  0  0  0
  1 22  1  0  0  0  0
  1 23  1  0  0  0  0
  2 24  1  0  0  0  0
  2 25  1  0  0  0  0
  6 26  1  0  0  0  0
  6 27  1  0  0  0  0
 12 28  1  0  0  0  0
 12 29  1  0  0  0  0
 13 30  1  0  0  0  0
 13 31  1  0  0  0  0
 13 32  1  0  0  0  0
 18 33  1  0  0  0  0
 18 34  1  0  0  0  0
 18 35  1  0  0  0  0
 20 36  1  0  0  0  0
 20 37  1  0  0  0  0
 20 38  1  0  0  0  0
M  END
