 xtb: 6.7.1 (edcfbbe)
          04092505213D

 41 40  0     0  0            999 V2000
    2.6511    1.2194   -2.8468 C   0  0  0  0  0  0  0  0  0  0  0  0
    2.7649   -0.1762   -2.2688 C   0  0  0  0  0  0  0  0  0  0  0  0
    3.1886   -0.1425   -0.8946 O   0  0  0  0  0  0  0  0  0  0  0  0
    2.2952    0.1331    0.3868 P   0  0  0  0  0  0  0  0  0  0  0  0
    1.4168    1.8659    0.6266 S   0  0  0  0  0  0  0  0  0  0  0  0
    3.3667   -0.0322    1.5308 O   0  0  0  0  0  0  0  0  0  0  0  0
    4.2077   -1.2031    1.6968 C   0  0  0  0  0  0  0  0  0  0  0  0
    3.7613   -1.9981    2.9079 C   0  0  0  0  0  0  0  0  0  0  0  0
    1.0463   -1.5895    0.4994 S   0  0  0  0  0  0  0  0  0  0  0  0
   -0.2121   -0.9063    1.6267 C   0  0  0  0  0  0  0  0  0  0  0  0
   -1.9056   -1.2013    1.0725 S   0  0  0  0  0  0  0  0  0  0  0  0
   -2.0233    0.2458   -0.4937 P   0  0  0  0  0  0  0  0  0  0  0  0
   -0.7444    0.1368   -1.9672 S   0  0  0  0  0  0  0  0  0  0  0  0
   -1.8964    1.6545    0.1962 O   0  0  0  0  0  0  0  0  0  0  0  0
   -2.7359    2.1173    1.2811 C   0  0  0  0  0  0  0  0  0  0  0  0
   -3.8491    2.9986    0.7532 C   0  0  0  0  0  0  0  0  0  0  0  0
   -3.5632    0.1760   -0.8765 O   0  0  0  0  0  0  0  0  0  0  0  0
   -4.2935   -1.0329   -1.1615 C   0  0  0  0  0  0  0  0  0  0  0  0
   -3.6083   -1.9087   -2.1886 C   0  0  0  0  0  0  0  0  0  0  0  0
    1.8455    1.7630   -2.3567 H   0  0  0  0  0  0  0  0  0  0  0  0
    3.5809    1.7644   -2.7064 H   0  0  0  0  0  0  0  0  0  0  0  0
    2.4243    1.1485   -3.9055 H   0  0  0  0  0  0  0  0  0  0  0  0
    3.5478   -0.7505   -2.7678 H   0  0  0  0  0  0  0  0  0  0  0  0
    1.8105   -0.7031   -2.3468 H   0  0  0  0  0  0  0  0  0  0  0  0
    4.1705   -1.8052    0.7870 H   0  0  0  0  0  0  0  0  0  0  0  0
    5.2141   -0.8041    1.8315 H   0  0  0  0  0  0  0  0  0  0  0  0
    4.4762   -2.7939    3.0909 H   0  0  0  0  0  0  0  0  0  0  0  0
    3.7145   -1.3506    3.7791 H   0  0  0  0  0  0  0  0  0  0  0  0
    2.7809   -2.4356    2.7368 H   0  0  0  0  0  0  0  0  0  0  0  0
   -0.0353    0.1696    1.7167 H   0  0  0  0  0  0  0  0  0  0  0  0
   -0.1294   -1.4064    2.5881 H   0  0  0  0  0  0  0  0  0  0  0  0
   -3.1360    1.2525    1.8183 H   0  0  0  0  0  0  0  0  0  0  0  0
   -2.0568    2.6769    1.9282 H   0  0  0  0  0  0  0  0  0  0  0  0
   -4.4269    3.3797    1.5894 H   0  0  0  0  0  0  0  0  0  0  0  0
   -3.4288    3.8319    0.1967 H   0  0  0  0  0  0  0  0  0  0  0  0
   -4.4992    2.4298    0.0936 H   0  0  0  0  0  0  0  0  0  0  0  0
   -4.4297   -1.5743   -0.2213 H   0  0  0  0  0  0  0  0  0  0  0  0
   -5.2567   -0.6708   -1.5256 H   0  0  0  0  0  0  0  0  0  0  0  0
   -3.4176   -1.3475   -3.1005 H   0  0  0  0  0  0  0  0  0  0  0  0
   -2.6553   -2.2675   -1.8012 H   0  0  0  0  0  0  0  0  0  0  0  0
   -4.2411   -2.7608   -2.4150 H   0  0  0  0  0  0  0  0  0  0  0  0
  1  2  1  0  0  0  0
  2  3  1  0  0  0  0
  3  4  2  0  0  0  0
  4  5  2  0  0  0  0
  4  6  2  0  0  0  0
  6  7  1  0  0  0  0
  7  8  1  0  0  0  0
  4  9  1  0  0  0  0
  9 10  1  0  0  0  0
 10 11  1  0  0  0  0
 11 12  1  0  0  0  0
 12 13  2  0  0  0  0
 12 14  2  0  0  0  0
 14 15  1  0  0  0  0
 15 16  1  0  0  0  0
 12 17  2  0  0  0  0
 17 18  1  0  0  0  0
 18 19  1  0  0  0  0
  1 20  1  0  0  0  0
  1 21  1  0  0  0  0
  1 22  1  0  0  0  0
  2 23  1  0  0  0  0
  2 24  1  0  0  0  0
  7 25  1  0  0  0  0
  7 26  1  0  0  0  0
  8 27  1  0  0  0  0
  8 28  1  0  0  0  0
  8 29  1  0  0  0  0
 10 30  1  0  0  0  0
 10 31  1  0  0  0  0
 15 32  1  0  0  0  0
 15 33  1  0  0  0  0
 16 34  1  0  0  0  0
 16 35  1  0  0  0  0
 16 36  1  0  0  0  0
 18 37  1  0  0  0  0
 18 38  1  0  0  0  0
 19 39  1  0  0  0  0
 19 40  1  0  0  0  0
 19 41  1  0  0  0  0
M  END
