 xtb: 6.7.1 (edcfbbe)
          04032520173D

 14 14  0     0  0            999 V2000
   -2.4112   -0.0863   -0.0042 C   0  0  0  0  0  0  0  0  0  0  0  0
   -1.8304   -1.3448    0.0058 C   0  0  0  0  0  0  0  0  0  0  0  0
   -0.4502   -1.4561    0.0075 C   0  0  0  0  0  0  0  0  0  0  0  0
    0.3282   -0.3168    0.0005 C   0  0  0  0  0  0  0  0  0  0  0  0
   -0.2286    0.9679   -0.0082 C   0  0  0  0  0  0  0  0  0  0  0  0
   -1.6271    1.0478   -0.0123 C   0  0  0  0  0  0  0  0  0  0  0  0
    0.5430    2.0909    0.0492 N   0  0  0  0  0  0  0  0  0  0  0  0
    2.0731   -0.4895   -0.0049 Cl  0  0  0  0  0  0  0  0  0  0  0  0
   -3.4859    0.0097   -0.0084 H   0  0  0  0  0  0  0  0  0  0  0  0
   -2.4400   -2.2336    0.0104 H   0  0  0  0  0  0  0  0  0  0  0  0
    0.0240   -2.4253    0.0115 H   0  0  0  0  0  0  0  0  0  0  0  0
   -2.0853    2.0248   -0.0194 H   0  0  0  0  0  0  0  0  0  0  0  0
    1.5205    1.9851   -0.1652 H   0  0  0  0  0  0  0  0  0  0  0  0
    0.1116    2.9603   -0.2118 H   0  0  0  0  0  0  0  0  0  0  0  0
  1  2  4  0  0  0  0
  2  3  4  0  0  0  0
  3  4  4  0  0  0  0
  4  5  4  0  0  0  0
  1  6  4  0  0  0  0
  5  6  4  0  0  0  0
  5  7  4  0  0  0  0
  4  8  1  0  0  0  0
  1  9  1  0  0  0  0
  2 10  1  0  0  0  0
  3 11  1  0  0  0  0
  6 12  1  0  0  0  0
  7 13  1  0  0  0  0
  7 14  1  0  0  0  0
M  END
