 xtb: 6.7.1 (edcfbbe)
          04092505213D

 41 40  0     0  0            999 V2000
    2.7739    0.2082   -2.8704 C   0  0  0  0  0  0  0  0  0  0  0  0
    3.5703    0.9208   -1.7941 C   0  0  0  0  0  0  0  0  0  0  0  0
    3.6432    0.1580   -0.5828 O   0  0  0  0  0  0  0  0  0  0  0  0
    2.4166   -0.0360    0.4052 P   0  0  0  0  0  0  0  0  0  0  0  0
    1.2016    1.5081    0.4497 S   0  0  0  0  0  0  0  0  0  0  0  0
    3.3014   -0.2925    1.6890 O   0  0  0  0  0  0  0  0  0  0  0  0
    2.8757   -1.0004    2.8693 C   0  0  0  0  0  0  0  0  0  0  0  0
    1.5568   -0.4926    3.4155 C   0  0  0  0  0  0  0  0  0  0  0  0
    1.6314   -1.9752   -0.0115 S   0  0  0  0  0  0  0  0  0  0  0  0
   -0.0062   -1.6219   -0.6929 C   0  0  0  0  0  0  0  0  0  0  0  0
   -1.1816   -0.9734    0.5397 S   0  0  0  0  0  0  0  0  0  0  0  0
   -2.1945    0.3994   -0.7360 P   0  0  0  0  0  0  0  0  0  0  0  0
   -1.1835    1.0966   -2.2587 S   0  0  0  0  0  0  0  0  0  0  0  0
   -2.8687    1.4545    0.2397 O   0  0  0  0  0  0  0  0  0  0  0  0
   -2.1742    2.4746    0.9816 C   0  0  0  0  0  0  0  0  0  0  0  0
   -1.9567    2.0391    2.4169 C   0  0  0  0  0  0  0  0  0  0  0  0
   -3.4638   -0.3727   -1.2617 O   0  0  0  0  0  0  0  0  0  0  0  0
   -4.4153   -1.0401   -0.3914 C   0  0  0  0  0  0  0  0  0  0  0  0
   -4.2899   -2.5433   -0.5402 C   0  0  0  0  0  0  0  0  0  0  0  0
    2.9184    0.7130   -3.8202 H   0  0  0  0  0  0  0  0  0  0  0  0
    3.0994   -0.8254   -2.9582 H   0  0  0  0  0  0  0  0  0  0  0  0
    1.7103    0.2344   -2.6333 H   0  0  0  0  0  0  0  0  0  0  0  0
    3.1279    1.8986   -1.5748 H   0  0  0  0  0  0  0  0  0  0  0  0
    4.6140    1.0457   -2.0862 H   0  0  0  0  0  0  0  0  0  0  0  0
    2.8122   -2.0645    2.6260 H   0  0  0  0  0  0  0  0  0  0  0  0
    3.6912   -0.8311    3.5748 H   0  0  0  0  0  0  0  0  0  0  0  0
    0.7502   -0.7088    2.7146 H   0  0  0  0  0  0  0  0  0  0  0  0
    1.3426   -0.9851    4.3585 H   0  0  0  0  0  0  0  0  0  0  0  0
    1.6027    0.5829    3.5722 H   0  0  0  0  0  0  0  0  0  0  0  0
   -0.3679   -2.5784   -1.0621 H   0  0  0  0  0  0  0  0  0  0  0  0
    0.0640   -0.8890   -1.5009 H   0  0  0  0  0  0  0  0  0  0  0  0
   -1.2237    2.7010    0.4900 H   0  0  0  0  0  0  0  0  0  0  0  0
   -2.8276    3.3474    0.9254 H   0  0  0  0  0  0  0  0  0  0  0  0
   -2.9035    1.7658    2.8736 H   0  0  0  0  0  0  0  0  0  0  0  0
   -1.2819    1.1876    2.4553 H   0  0  0  0  0  0  0  0  0  0  0  0
   -1.5120    2.8610    2.9683 H   0  0  0  0  0  0  0  0  0  0  0  0
   -4.2423   -0.7249    0.6395 H   0  0  0  0  0  0  0  0  0  0  0  0
   -5.3925   -0.6869   -0.7236 H   0  0  0  0  0  0  0  0  0  0  0  0
   -3.3341   -2.8870   -0.1528 H   0  0  0  0  0  0  0  0  0  0  0  0
   -5.0892   -3.0214    0.0170 H   0  0  0  0  0  0  0  0  0  0  0  0
   -4.3683   -2.8197   -1.5880 H   0  0  0  0  0  0  0  0  0  0  0  0
  1  2  1  0  0  0  0
  2  3  1  0  0  0  0
  3  4  2  0  0  0  0
  4  5  2  0  0  0  0
  4  6  2  0  0  0  0
  6  7  1  0  0  0  0
  7  8  1  0  0  0  0
  4  9  1  0  0  0  0
  9 10  1  0  0  0  0
 10 11  1  0  0  0  0
 11 12  1  0  0  0  0
 12 13  2  0  0  0  0
 12 14  2  0  0  0  0
 14 15  1  0  0  0  0
 15 16  1  0  0  0  0
 12 17  2  0  0  0  0
 17 18  1  0  0  0  0
 18 19  1  0  0  0  0
  1 20  1  0  0  0  0
  1 21  1  0  0  0  0
  1 22  1  0  0  0  0
  2 23  1  0  0  0  0
  2 24  1  0  0  0  0
  7 25  1  0  0  0  0
  7 26  1  0  0  0  0
  8 27  1  0  0  0  0
  8 28  1  0  0  0  0
  8 29  1  0  0  0  0
 10 30  1  0  0  0  0
 10 31  1  0  0  0  0
 15 32  1  0  0  0  0
 15 33  1  0  0  0  0
 16 34  1  0  0  0  0
 16 35  1  0  0  0  0
 16 36  1  0  0  0  0
 18 37  1  0  0  0  0
 18 38  1  0  0  0  0
 19 39  1  0  0  0  0
 19 40  1  0  0  0  0
 19 41  1  0  0  0  0
M  END
