 xtb: 6.7.1 (edcfbbe)
          04092505213D

 41 40  0     0  0            999 V2000
    4.1239    2.4319   -0.5170 C   0  0  0  0  0  0  0  0  0  0  0  0
    4.5108    0.9685   -0.4508 C   0  0  0  0  0  0  0  0  0  0  0  0
    3.3974    0.0996   -0.7275 O   0  0  0  0  0  0  0  0  0  0  0  0
    2.1636   -0.0426    0.2631 P   0  0  0  0  0  0  0  0  0  0  0  0
    2.6254   -0.0482    2.1718 S   0  0  0  0  0  0  0  0  0  0  0  0
    1.4501   -1.3451   -0.2874 O   0  0  0  0  0  0  0  0  0  0  0  0
    1.7161   -2.6604    0.2308 C   0  0  0  0  0  0  0  0  0  0  0  0
    3.1208   -3.1214   -0.0945 C   0  0  0  0  0  0  0  0  0  0  0  0
    0.7958    1.4083   -0.3973 S   0  0  0  0  0  0  0  0  0  0  0  0
   -0.2661    1.3895    1.0772 C   0  0  0  0  0  0  0  0  0  0  0  0
   -1.0893   -0.2019    1.3705 S   0  0  0  0  0  0  0  0  0  0  0  0
   -2.1978   -0.4051   -0.4341 P   0  0  0  0  0  0  0  0  0  0  0  0
   -1.2959   -1.0996   -2.0255 S   0  0  0  0  0  0  0  0  0  0  0  0
   -2.9010    1.0163   -0.6039 O   0  0  0  0  0  0  0  0  0  0  0  0
   -2.8590    1.8153   -1.8054 C   0  0  0  0  0  0  0  0  0  0  0  0
   -2.1619    3.1360   -1.5490 C   0  0  0  0  0  0  0  0  0  0  0  0
   -3.3438   -1.4080    0.0013 O   0  0  0  0  0  0  0  0  0  0  0  0
   -4.5733   -1.0629    0.6858 C   0  0  0  0  0  0  0  0  0  0  0  0
   -4.3510   -0.4146    2.0354 C   0  0  0  0  0  0  0  0  0  0  0  0
    3.6295    2.6490   -1.4607 H   0  0  0  0  0  0  0  0  0  0  0  0
    3.4452    2.6755    0.2993 H   0  0  0  0  0  0  0  0  0  0  0  0
    5.0164    3.0428   -0.4275 H   0  0  0  0  0  0  0  0  0  0  0  0
    4.9041    0.7192    0.5402 H   0  0  0  0  0  0  0  0  0  0  0  0
    5.2414    0.7081   -1.2177 H   0  0  0  0  0  0  0  0  0  0  0  0
    1.5501   -2.6440    1.3137 H   0  0  0  0  0  0  0  0  0  0  0  0
    0.9598   -3.2848   -0.2489 H   0  0  0  0  0  0  0  0  0  0  0  0
    3.2448   -4.1509    0.2264 H   0  0  0  0  0  0  0  0  0  0  0  0
    3.2985   -3.0492   -1.1645 H   0  0  0  0  0  0  0  0  0  0  0  0
    3.8448   -2.4964    0.4276 H   0  0  0  0  0  0  0  0  0  0  0  0
   -1.0090    2.1711    0.9433 H   0  0  0  0  0  0  0  0  0  0  0  0
    0.3425    1.5675    1.9639 H   0  0  0  0  0  0  0  0  0  0  0  0
   -2.3536    1.2446   -2.5917 H   0  0  0  0  0  0  0  0  0  0  0  0
   -3.9031    1.9713   -2.0845 H   0  0  0  0  0  0  0  0  0  0  0  0
   -1.1027    2.9798   -1.3525 H   0  0  0  0  0  0  0  0  0  0  0  0
   -2.2633    3.7584   -2.4322 H   0  0  0  0  0  0  0  0  0  0  0  0
   -2.6178    3.6438   -0.7035 H   0  0  0  0  0  0  0  0  0  0  0  0
   -5.1513   -0.4071    0.0313 H   0  0  0  0  0  0  0  0  0  0  0  0
   -5.0775   -2.0259    0.7817 H   0  0  0  0  0  0  0  0  0  0  0  0
   -5.3100   -0.3044    2.5324 H   0  0  0  0  0  0  0  0  0  0  0  0
   -3.6979   -1.0291    2.6504 H   0  0  0  0  0  0  0  0  0  0  0  0
   -3.8988    0.5669    1.9153 H   0  0  0  0  0  0  0  0  0  0  0  0
  1  2  1  0  0  0  0
  2  3  1  0  0  0  0
  3  4  2  0  0  0  0
  4  5  2  0  0  0  0
  4  6  2  0  0  0  0
  6  7  1  0  0  0  0
  7  8  1  0  0  0  0
  4  9  1  0  0  0  0
  9 10  1  0  0  0  0
 10 11  1  0  0  0  0
 11 12  1  0  0  0  0
 12 13  2  0  0  0  0
 12 14  2  0  0  0  0
 14 15  1  0  0  0  0
 15 16  1  0  0  0  0
 12 17  2  0  0  0  0
 17 18  1  0  0  0  0
 18 19  1  0  0  0  0
  1 20  1  0  0  0  0
  1 21  1  0  0  0  0
  1 22  1  0  0  0  0
  2 23  1  0  0  0  0
  2 24  1  0  0  0  0
  7 25  1  0  0  0  0
  7 26  1  0  0  0  0
  8 27  1  0  0  0  0
  8 28  1  0  0  0  0
  8 29  1  0  0  0  0
 10 30  1  0  0  0  0
 10 31  1  0  0  0  0
 15 32  1  0  0  0  0
 15 33  1  0  0  0  0
 16 34  1  0  0  0  0
 16 35  1  0  0  0  0
 16 36  1  0  0  0  0
 18 37  1  0  0  0  0
 18 38  1  0  0  0  0
 19 39  1  0  0  0  0
 19 40  1  0  0  0  0
 19 41  1  0  0  0  0
M  END
