 xtb: 6.7.1 (edcfbbe)
          04092505213D

 41 40  0     0  0            999 V2000
    3.5853   -1.2276   -2.1082 C   0  0  0  0  0  0  0  0  0  0  0  0
    4.0654   -0.1216   -1.1902 C   0  0  0  0  0  0  0  0  0  0  0  0
    3.4739   -0.1991    0.1162 O   0  0  0  0  0  0  0  0  0  0  0  0
    1.9058   -0.0340    0.3567 P   0  0  0  0  0  0  0  0  0  0  0  0
    1.1818    1.4573   -0.7206 S   0  0  0  0  0  0  0  0  0  0  0  0
    1.8523    0.2028    1.9254 O   0  0  0  0  0  0  0  0  0  0  0  0
    2.1627    1.4742    2.5320 C   0  0  0  0  0  0  0  0  0  0  0  0
    3.6563    1.7118    2.6304 C   0  0  0  0  0  0  0  0  0  0  0  0
    1.3485   -2.0674    0.3525 S   0  0  0  0  0  0  0  0  0  0  0  0
   -0.3296   -2.2821   -0.3572 C   0  0  0  0  0  0  0  0  0  0  0  0
   -0.7813   -1.0661   -1.6190 S   0  0  0  0  0  0  0  0  0  0  0  0
   -1.9218    0.2008   -0.3743 P   0  0  0  0  0  0  0  0  0  0  0  0
   -2.4457    1.9642   -1.0416 S   0  0  0  0  0  0  0  0  0  0  0  0
   -1.0792    0.1313    0.9797 O   0  0  0  0  0  0  0  0  0  0  0  0
   -1.3177    1.0823    2.0387 C   0  0  0  0  0  0  0  0  0  0  0  0
   -2.7326    1.0279    2.5732 C   0  0  0  0  0  0  0  0  0  0  0  0
   -3.1605   -0.7212    0.0435 O   0  0  0  0  0  0  0  0  0  0  0  0
   -4.3942   -0.7205   -0.6895 C   0  0  0  0  0  0  0  0  0  0  0  0
   -4.2488   -1.3692   -2.0515 C   0  0  0  0  0  0  0  0  0  0  0  0
    2.5232   -1.0987   -2.3206 H   0  0  0  0  0  0  0  0  0  0  0  0
    4.1352   -1.1817   -3.0427 H   0  0  0  0  0  0  0  0  0  0  0  0
    3.7374   -2.1986   -1.6437 H   0  0  0  0  0  0  0  0  0  0  0  0
    3.8274    0.8586   -1.6168 H   0  0  0  0  0  0  0  0  0  0  0  0
    5.1367   -0.1937   -0.9977 H   0  0  0  0  0  0  0  0  0  0  0  0
    1.6788    2.2669    1.9509 H   0  0  0  0  0  0  0  0  0  0  0  0
    1.7103    1.4135    3.5236 H   0  0  0  0  0  0  0  0  0  0  0  0
    3.8337    2.6038    3.2235 H   0  0  0  0  0  0  0  0  0  0  0  0
    4.1371    0.8600    3.1035 H   0  0  0  0  0  0  0  0  0  0  0  0
    4.0854    1.8525    1.6412 H   0  0  0  0  0  0  0  0  0  0  0  0
   -1.0682   -2.2686    0.4403 H   0  0  0  0  0  0  0  0  0  0  0  0
   -0.2923   -3.2515   -0.8495 H   0  0  0  0  0  0  0  0  0  0  0  0
   -0.5920    0.7975    2.8015 H   0  0  0  0  0  0  0  0  0  0  0  0
   -1.0847    2.0819    1.6565 H   0  0  0  0  0  0  0  0  0  0  0  0
   -2.9889    0.0122    2.8627 H   0  0  0  0  0  0  0  0  0  0  0  0
   -2.8060    1.6811    3.4373 H   0  0  0  0  0  0  0  0  0  0  0  0
   -3.4327    1.3706    1.8126 H   0  0  0  0  0  0  0  0  0  0  0  0
   -5.0827   -1.2742   -0.0497 H   0  0  0  0  0  0  0  0  0  0  0  0
   -4.7318    0.3157   -0.7947 H   0  0  0  0  0  0  0  0  0  0  0  0
   -3.5739   -0.7796   -2.6719 H   0  0  0  0  0  0  0  0  0  0  0  0
   -3.8482   -2.3747   -1.9553 H   0  0  0  0  0  0  0  0  0  0  0  0
   -5.2204   -1.4122   -2.5330 H   0  0  0  0  0  0  0  0  0  0  0  0
  1  2  1  0  0  0  0
  2  3  1  0  0  0  0
  3  4  2  0  0  0  0
  4  5  2  0  0  0  0
  4  6  2  0  0  0  0
  6  7  1  0  0  0  0
  7  8  1  0  0  0  0
  4  9  1  0  0  0  0
  9 10  1  0  0  0  0
 10 11  1  0  0  0  0
 11 12  1  0  0  0  0
 12 13  2  0  0  0  0
 12 14  1  0  0  0  0
 14 15  1  0  0  0  0
 15 16  1  0  0  0  0
 12 17  1  0  0  0  0
 17 18  1  0  0  0  0
 18 19  1  0  0  0  0
  1 20  1  0  0  0  0
  1 21  1  0  0  0  0
  1 22  1  0  0  0  0
  2 23  1  0  0  0  0
  2 24  1  0  0  0  0
  7 25  1  0  0  0  0
  7 26  1  0  0  0  0
  8 27  1  0  0  0  0
  8 28  1  0  0  0  0
  8 29  1  0  0  0  0
 10 30  1  0  0  0  0
 10 31  1  0  0  0  0
 15 32  1  0  0  0  0
 15 33  1  0  0  0  0
 16 34  1  0  0  0  0
 16 35  1  0  0  0  0
 16 36  1  0  0  0  0
 18 37  1  0  0  0  0
 18 38  1  0  0  0  0
 19 39  1  0  0  0  0
 19 40  1  0  0  0  0
 19 41  1  0  0  0  0
M  END
