 xtb: 6.7.1 (edcfbbe)
          04092505213D

 41 40  0     0  0            999 V2000
    4.3844   -2.3271   -0.6268 C   0  0  0  0  0  0  0  0  0  0  0  0
    4.5283   -0.8959   -0.1489 C   0  0  0  0  0  0  0  0  0  0  0  0
    3.7768   -0.0021   -1.0136 O   0  0  0  0  0  0  0  0  0  0  0  0
    2.4388    0.7046   -0.5793 P   0  0  0  0  0  0  0  0  0  0  0  0
    1.7454    1.7858   -2.0558 S   0  0  0  0  0  0  0  0  0  0  0  0
    2.9025    1.4747    0.7291 O   0  0  0  0  0  0  0  0  0  0  0  0
    2.0006    2.1560    1.6266 C   0  0  0  0  0  0  0  0  0  0  0  0
    1.8926    1.3812    2.9256 C   0  0  0  0  0  0  0  0  0  0  0  0
    1.1529   -0.8248    0.1503 S   0  0  0  0  0  0  0  0  0  0  0  0
    0.1323   -1.0275   -1.3466 C   0  0  0  0  0  0  0  0  0  0  0  0
   -1.4803   -1.7237   -0.9624 S   0  0  0  0  0  0  0  0  0  0  0  0
   -2.4013   -0.0543    0.0125 P   0  0  0  0  0  0  0  0  0  0  0  0
   -1.3879    1.6237    0.0183 S   0  0  0  0  0  0  0  0  0  0  0  0
   -2.8262   -0.6206    1.4345 O   0  0  0  0  0  0  0  0  0  0  0  0
   -1.8796   -0.9421    2.4730 C   0  0  0  0  0  0  0  0  0  0  0  0
   -1.6954    0.2318    3.4149 C   0  0  0  0  0  0  0  0  0  0  0  0
   -3.7872    0.1505   -0.6979 O   0  0  0  0  0  0  0  0  0  0  0  0
   -4.6555   -0.8799   -1.2343 C   0  0  0  0  0  0  0  0  0  0  0  0
   -4.9335   -1.9977   -0.2537 C   0  0  0  0  0  0  0  0  0  0  0  0
    5.0453   -2.9616   -0.0448 H   0  0  0  0  0  0  0  0  0  0  0  0
    3.3612   -2.6719   -0.5002 H   0  0  0  0  0  0  0  0  0  0  0  0
    4.6546   -2.3964   -1.6769 H   0  0  0  0  0  0  0  0  0  0  0  0
    5.5605   -0.5518   -0.2257 H   0  0  0  0  0  0  0  0  0  0  0  0
    4.1776   -0.7805    0.8785 H   0  0  0  0  0  0  0  0  0  0  0  0
    2.4418    3.1418    1.7846 H   0  0  0  0  0  0  0  0  0  0  0  0
    1.0252    2.2765    1.1457 H   0  0  0  0  0  0  0  0  0  0  0  0
    1.4658    0.3975    2.7432 H   0  0  0  0  0  0  0  0  0  0  0  0
    2.8769    1.2653    3.3700 H   0  0  0  0  0  0  0  0  0  0  0  0
    1.2513    1.9273    3.6095 H   0  0  0  0  0  0  0  0  0  0  0  0
    0.6129   -1.7310   -2.0225 H   0  0  0  0  0  0  0  0  0  0  0  0
    0.0221   -0.0442   -1.8122 H   0  0  0  0  0  0  0  0  0  0  0  0
   -2.3186   -1.7987    2.9879 H   0  0  0  0  0  0  0  0  0  0  0  0
   -0.9275   -1.2373    2.0205 H   0  0  0  0  0  0  0  0  0  0  0  0
   -1.2916    1.0848    2.8744 H   0  0  0  0  0  0  0  0  0  0  0  0
   -2.6508    0.5162    3.8467 H   0  0  0  0  0  0  0  0  0  0  0  0
   -1.0097   -0.0477    4.2080 H   0  0  0  0  0  0  0  0  0  0  0  0
   -5.5627   -0.3286   -1.4866 H   0  0  0  0  0  0  0  0  0  0  0  0
   -4.1920   -1.2673   -2.1449 H   0  0  0  0  0  0  0  0  0  0  0  0
   -5.6721   -2.6668   -0.6845 H   0  0  0  0  0  0  0  0  0  0  0  0
   -4.0225   -2.5594   -0.0548 H   0  0  0  0  0  0  0  0  0  0  0  0
   -5.3141   -1.5937    0.6805 H   0  0  0  0  0  0  0  0  0  0  0  0
  1  2  1  0  0  0  0
  2  3  1  0  0  0  0
  3  4  2  0  0  0  0
  4  5  2  0  0  0  0
  4  6  2  0  0  0  0
  6  7  1  0  0  0  0
  7  8  1  0  0  0  0
  4  9  1  0  0  0  0
  9 10  1  0  0  0  0
 10 11  1  0  0  0  0
 11 12  1  0  0  0  0
 12 13  2  0  0  0  0
 12 14  2  0  0  0  0
 14 15  1  0  0  0  0
 15 16  1  0  0  0  0
 12 17  2  0  0  0  0
 17 18  1  0  0  0  0
 18 19  1  0  0  0  0
  1 20  1  0  0  0  0
  1 21  1  0  0  0  0
  1 22  1  0  0  0  0
  2 23  1  0  0  0  0
  2 24  1  0  0  0  0
  7 25  1  0  0  0  0
  7 26  1  0  0  0  0
  8 27  1  0  0  0  0
  8 28  1  0  0  0  0
  8 29  1  0  0  0  0
 10 30  1  0  0  0  0
 10 31  1  0  0  0  0
 15 32  1  0  0  0  0
 15 33  1  0  0  0  0
 16 34  1  0  0  0  0
 16 35  1  0  0  0  0
 16 36  1  0  0  0  0
 18 37  1  0  0  0  0
 18 38  1  0  0  0  0
 19 39  1  0  0  0  0
 19 40  1  0  0  0  0
 19 41  1  0  0  0  0
M  END
