 xtb: 6.7.1 (edcfbbe)
          04092505213D

 41 40  0     0  0            999 V2000
    5.1242   -1.2179   -2.3796 C   0  0  0  0  0  0  0  0  0  0  0  0
    4.5807   -1.0045   -0.9823 C   0  0  0  0  0  0  0  0  0  0  0  0
    3.2797   -0.3815   -1.1010 O   0  0  0  0  0  0  0  0  0  0  0  0
    2.6434    0.3876    0.1327 P   0  0  0  0  0  0  0  0  0  0  0  0
    3.7954    1.6995    1.0203 S   0  0  0  0  0  0  0  0  0  0  0  0
    2.2080   -0.8359    1.0647 O   0  0  0  0  0  0  0  0  0  0  0  0
    2.0133   -0.6867    2.4798 C   0  0  0  0  0  0  0  0  0  0  0  0
    0.8081    0.1721    2.8026 C   0  0  0  0  0  0  0  0  0  0  0  0
    0.9098    1.1128   -0.8180 S   0  0  0  0  0  0  0  0  0  0  0  0
    0.2787   -0.4529   -1.5063 C   0  0  0  0  0  0  0  0  0  0  0  0
   -0.6694   -1.4368   -0.3221 S   0  0  0  0  0  0  0  0  0  0  0  0
   -2.3436   -0.1544   -0.2404 P   0  0  0  0  0  0  0  0  0  0  0  0
   -2.8909    0.6576   -1.9448 S   0  0  0  0  0  0  0  0  0  0  0  0
   -1.9225    0.8415    0.9132 O   0  0  0  0  0  0  0  0  0  0  0  0
   -2.4879    2.1623    1.0283 C   0  0  0  0  0  0  0  0  0  0  0  0
   -3.9388    2.1056    1.4564 C   0  0  0  0  0  0  0  0  0  0  0  0
   -3.4479   -1.0382    0.4793 O   0  0  0  0  0  0  0  0  0  0  0  0
   -4.1728   -2.0637   -0.2304 C   0  0  0  0  0  0  0  0  0  0  0  0
   -5.3876   -2.4310    0.5976 C   0  0  0  0  0  0  0  0  0  0  0  0
    4.4580   -1.8611   -2.9470 H   0  0  0  0  0  0  0  0  0  0  0  0
    5.2157   -0.2650   -2.8935 H   0  0  0  0  0  0  0  0  0  0  0  0
    6.1020   -1.6837   -2.3123 H   0  0  0  0  0  0  0  0  0  0  0  0
    5.2285   -0.3440   -0.3959 H   0  0  0  0  0  0  0  0  0  0  0  0
    4.4550   -1.9496   -0.4489 H   0  0  0  0  0  0  0  0  0  0  0  0
    1.8899   -1.7093    2.8381 H   0  0  0  0  0  0  0  0  0  0  0  0
    2.9191   -0.2428    2.9056 H   0  0  0  0  0  0  0  0  0  0  0  0
   -0.0944   -0.2482    2.3657 H   0  0  0  0  0  0  0  0  0  0  0  0
    0.6887    0.2364    3.8793 H   0  0  0  0  0  0  0  0  0  0  0  0
    0.9572    1.1760    2.4029 H   0  0  0  0  0  0  0  0  0  0  0  0
    1.1110   -1.0603   -1.8472 H   0  0  0  0  0  0  0  0  0  0  0  0
   -0.3736   -0.1681   -2.3328 H   0  0  0  0  0  0  0  0  0  0  0  0
   -1.8603    2.6541    1.7724 H   0  0  0  0  0  0  0  0  0  0  0  0
   -2.3834    2.6706    0.0643 H   0  0  0  0  0  0  0  0  0  0  0  0
   -4.3085    3.1135    1.6166 H   0  0  0  0  0  0  0  0  0  0  0  0
   -4.5329    1.6296    0.6770 H   0  0  0  0  0  0  0  0  0  0  0  0
   -4.0367    1.5315    2.3738 H   0  0  0  0  0  0  0  0  0  0  0  0
   -4.4574   -1.6727   -1.2130 H   0  0  0  0  0  0  0  0  0  0  0  0
   -3.5076   -2.9208   -0.3658 H   0  0  0  0  0  0  0  0  0  0  0  0
   -6.0382   -1.5689    0.7137 H   0  0  0  0  0  0  0  0  0  0  0  0
   -5.9322   -3.2253    0.0978 H   0  0  0  0  0  0  0  0  0  0  0  0
   -5.0752   -2.7711    1.5805 H   0  0  0  0  0  0  0  0  0  0  0  0
  1  2  1  0  0  0  0
  2  3  1  0  0  0  0
  3  4  2  0  0  0  0
  4  5  2  0  0  0  0
  4  6  2  0  0  0  0
  6  7  1  0  0  0  0
  7  8  1  0  0  0  0
  4  9  1  0  0  0  0
  9 10  1  0  0  0  0
 10 11  1  0  0  0  0
 11 12  1  0  0  0  0
 12 13  2  0  0  0  0
 12 14  2  0  0  0  0
 14 15  1  0  0  0  0
 15 16  1  0  0  0  0
 12 17  2  0  0  0  0
 17 18  1  0  0  0  0
 18 19  1  0  0  0  0
  1 20  1  0  0  0  0
  1 21  1  0  0  0  0
  1 22  1  0  0  0  0
  2 23  1  0  0  0  0
  2 24  1  0  0  0  0
  7 25  1  0  0  0  0
  7 26  1  0  0  0  0
  8 27  1  0  0  0  0
  8 28  1  0  0  0  0
  8 29  1  0  0  0  0
 10 30  1  0  0  0  0
 10 31  1  0  0  0  0
 15 32  1  0  0  0  0
 15 33  1  0  0  0  0
 16 34  1  0  0  0  0
 16 35  1  0  0  0  0
 16 36  1  0  0  0  0
 18 37  1  0  0  0  0
 18 38  1  0  0  0  0
 19 39  1  0  0  0  0
 19 40  1  0  0  0  0
 19 41  1  0  0  0  0
M  END
