 xtb: 6.7.1 (edcfbbe)
          04032519423D

 20 20  0     0  0            999 V2000
    0.6055    1.6981   -0.0078 C   0  0  0  0  0  0  0  0  0  0  0  0
    1.4027    0.4141   -0.2591 C   0  0  0  0  0  0  0  0  0  0  0  0
    1.6121    0.3308   -1.3402 H   0  0  0  0  0  0  0  0  0  0  0  0
    0.5555   -0.7910    0.1742 C   0  0  0  0  0  0  0  0  0  0  0  0
    0.3987   -0.7433    1.2576 H   0  0  0  0  0  0  0  0  0  0  0  0
   -0.8055   -0.7454   -0.5326 C   0  0  0  0  0  0  0  0  0  0  0  0
   -0.6569   -0.8561   -1.6190 H   0  0  0  0  0  0  0  0  0  0  0  0
   -1.4718    0.6240   -0.2791 C   0  0  0  0  0  0  0  0  0  0  0  0
   -2.3695    0.7156   -0.9102 H   0  0  0  0  0  0  0  0  0  0  0  0
   -0.6437    1.6699   -0.6831 O   0  0  0  0  0  0  0  0  0  0  0  0
   -1.8075    0.7661    1.0711 O   0  0  0  0  0  0  0  0  0  0  0  0
   -1.6811   -1.7330   -0.0508 O   0  0  0  0  0  0  0  0  0  0  0  0
    1.2181   -2.0131   -0.0554 O   0  0  0  0  0  0  0  0  0  0  0  0
    2.6075    0.4892    0.4600 O   0  0  0  0  0  0  0  0  0  0  0  0
    1.1363    2.5624   -0.4043 H   0  0  0  0  0  0  0  0  0  0  0  0
    0.4545    1.8240    1.0695 H   0  0  0  0  0  0  0  0  0  0  0  0
   -2.3084   -0.0220    1.3369 H   0  0  0  0  0  0  0  0  0  0  0  0
   -1.1906   -2.5641    0.0534 H   0  0  0  0  0  0  0  0  0  0  0  0
    1.4120   -2.1091   -1.0004 H   0  0  0  0  0  0  0  0  0  0  0  0
    2.9697   -0.4059    0.5582 H   0  0  0  0  0  0  0  0  0  0  0  0
  1  2  1  0  0  0  0
  2  3  1  0  0  0  0
  2  4  1  0  0  0  0
  4  5  1  0  0  0  0
  4  6  1  0  0  0  0
  6  7  1  0  0  0  0
  6  8  1  0  0  0  0
  8  9  1  0  0  0  0
  1 10  1  0  0  0  0
  8 10  1  0  0  0  0
  8 11  1  0  0  0  0
  6 12  1  0  0  0  0
  4 13  1  0  0  0  0
  2 14  1  0  0  0  0
  1 15  1  0  0  0  0
  1 16  1  0  0  0  0
 11 17  1  0  0  0  0
 12 18  1  0  0  0  0
 13 19  1  0  0  0  0
 14 20  1  0  0  0  0
M  END
