 xtb: 6.7.1 (edcfbbe)
          04092505213D

 41 40  0     0  0            999 V2000
    4.0751   -2.5898   -1.5770 C   0  0  0  0  0  0  0  0  0  0  0  0
    4.6334   -1.1835   -1.6492 C   0  0  0  0  0  0  0  0  0  0  0  0
    4.0666   -0.3130   -0.6521 O   0  0  0  0  0  0  0  0  0  0  0  0
    2.5292    0.0939   -0.6219 P   0  0  0  0  0  0  0  0  0  0  0  0
    1.7047    0.4746   -2.3513 S   0  0  0  0  0  0  0  0  0  0  0  0
    2.5497    1.3584    0.3165 O   0  0  0  0  0  0  0  0  0  0  0  0
    3.1430    1.3500    1.6411 C   0  0  0  0  0  0  0  0  0  0  0  0
    2.2740    2.1847    2.5585 C   0  0  0  0  0  0  0  0  0  0  0  0
    1.6136   -1.4602    0.5207 S   0  0  0  0  0  0  0  0  0  0  0  0
   -0.0739   -1.0884    0.0309 C   0  0  0  0  0  0  0  0  0  0  0  0
   -0.6430    0.4583    0.8363 S   0  0  0  0  0  0  0  0  0  0  0  0
   -2.6962    0.2328    0.3528 P   0  0  0  0  0  0  0  0  0  0  0  0
   -3.8707    1.6815    0.9478 S   0  0  0  0  0  0  0  0  0  0  0  0
   -3.0460   -1.2153    0.9029 O   0  0  0  0  0  0  0  0  0  0  0  0
   -3.2087   -1.4206    2.3234 C   0  0  0  0  0  0  0  0  0  0  0  0
   -3.7992   -2.8008    2.5266 C   0  0  0  0  0  0  0  0  0  0  0  0
   -2.7351   -0.1485   -1.1855 O   0  0  0  0  0  0  0  0  0  0  0  0
   -3.0239    0.8409   -2.1896 C   0  0  0  0  0  0  0  0  0  0  0  0
   -1.9092    1.8590   -2.3230 C   0  0  0  0  0  0  0  0  0  0  0  0
    3.0277   -2.5922   -1.8740 H   0  0  0  0  0  0  0  0  0  0  0  0
    4.6325   -3.2291   -2.2541 H   0  0  0  0  0  0  0  0  0  0  0  0
    4.1548   -2.9783   -0.5649 H   0  0  0  0  0  0  0  0  0  0  0  0
    4.4472   -0.7449   -2.6342 H   0  0  0  0  0  0  0  0  0  0  0  0
    5.7020   -1.1623   -1.4303 H   0  0  0  0  0  0  0  0  0  0  0  0
    3.2156    0.3162    1.9909 H   0  0  0  0  0  0  0  0  0  0  0  0
    4.1453    1.7702    1.5413 H   0  0  0  0  0  0  0  0  0  0  0  0
    1.2777    1.7538    2.6270 H   0  0  0  0  0  0  0  0  0  0  0  0
    2.7232    2.2147    3.5458 H   0  0  0  0  0  0  0  0  0  0  0  0
    2.1862    3.1953    2.1703 H   0  0  0  0  0  0  0  0  0  0  0  0
   -0.7006   -1.9169    0.3512 H   0  0  0  0  0  0  0  0  0  0  0  0
   -0.1101   -0.9551   -1.0517 H   0  0  0  0  0  0  0  0  0  0  0  0
   -2.2299   -1.3280    2.8050 H   0  0  0  0  0  0  0  0  0  0  0  0
   -3.8691   -0.6393    2.7141 H   0  0  0  0  0  0  0  0  0  0  0  0
   -3.1360   -3.5566    2.1161 H   0  0  0  0  0  0  0  0  0  0  0  0
   -3.9323   -2.9772    3.5888 H   0  0  0  0  0  0  0  0  0  0  0  0
   -4.7612   -2.8695    2.0272 H   0  0  0  0  0  0  0  0  0  0  0  0
   -3.1507    0.2597   -3.1037 H   0  0  0  0  0  0  0  0  0  0  0  0
   -3.9636    1.3376   -1.9281 H   0  0  0  0  0  0  0  0  0  0  0  0
   -1.8028    2.4165   -1.3918 H   0  0  0  0  0  0  0  0  0  0  0  0
   -0.9622    1.3742   -2.5525 H   0  0  0  0  0  0  0  0  0  0  0  0
   -2.1496    2.5544   -3.1207 H   0  0  0  0  0  0  0  0  0  0  0  0
  1  2  1  0  0  0  0
  2  3  1  0  0  0  0
  3  4  2  0  0  0  0
  4  5  2  0  0  0  0
  4  6  2  0  0  0  0
  6  7  1  0  0  0  0
  7  8  1  0  0  0  0
  4  9  1  0  0  0  0
  9 10  1  0  0  0  0
 10 11  1  0  0  0  0
 11 12  1  0  0  0  0
 12 13  2  0  0  0  0
 12 14  2  0  0  0  0
 14 15  1  0  0  0  0
 15 16  1  0  0  0  0
 12 17  2  0  0  0  0
 17 18  1  0  0  0  0
 18 19  1  0  0  0  0
  1 20  1  0  0  0  0
  1 21  1  0  0  0  0
  1 22  1  0  0  0  0
  2 23  1  0  0  0  0
  2 24  1  0  0  0  0
  7 25  1  0  0  0  0
  7 26  1  0  0  0  0
  8 27  1  0  0  0  0
  8 28  1  0  0  0  0
  8 29  1  0  0  0  0
 10 30  1  0  0  0  0
 10 31  1  0  0  0  0
 15 32  1  0  0  0  0
 15 33  1  0  0  0  0
 16 34  1  0  0  0  0
 16 35  1  0  0  0  0
 16 36  1  0  0  0  0
 18 37  1  0  0  0  0
 18 38  1  0  0  0  0
 19 39  1  0  0  0  0
 19 40  1  0  0  0  0
 19 41  1  0  0  0  0
M  END
