 xtb: 6.7.1 (edcfbbe)
          04092505203D

 41 40  0     0  0            999 V2000
    2.4631    0.4834   -2.4303 C   0  0  0  0  0  0  0  0  0  0  0  0
    2.0695    1.5091   -1.3887 C   0  0  0  0  0  0  0  0  0  0  0  0
    1.2655    0.9544   -0.3123 O   0  0  0  0  0  0  0  0  0  0  0  0
    1.7981   -0.0484    0.7938 P   0  0  0  0  0  0  0  0  0  0  0  0
    0.8705    0.2395    2.4978 S   0  0  0  0  0  0  0  0  0  0  0  0
    3.3528    0.2708    0.8055 O   0  0  0  0  0  0  0  0  0  0  0  0
    4.3754   -0.6255    1.2815 C   0  0  0  0  0  0  0  0  0  0  0  0
    4.1172   -1.1263    2.6864 C   0  0  0  0  0  0  0  0  0  0  0  0
    1.7218   -2.0147   -0.0340 S   0  0  0  0  0  0  0  0  0  0  0  0
    0.0828   -1.9912   -0.8045 C   0  0  0  0  0  0  0  0  0  0  0  0
   -1.2859   -1.5840    0.3276 S   0  0  0  0  0  0  0  0  0  0  0  0
   -1.8807    0.2752   -0.4671 P   0  0  0  0  0  0  0  0  0  0  0  0
   -1.2782    0.7433   -2.2734 S   0  0  0  0  0  0  0  0  0  0  0  0
   -1.4826    1.2495    0.7118 O   0  0  0  0  0  0  0  0  0  0  0  0
   -1.3715    2.6751    0.5543 C   0  0  0  0  0  0  0  0  0  0  0  0
   -2.7132    3.3303    0.3035 C   0  0  0  0  0  0  0  0  0  0  0  0
   -3.4658    0.2509   -0.3069 O   0  0  0  0  0  0  0  0  0  0  0  0
   -4.3449   -0.2416   -1.3323 C   0  0  0  0  0  0  0  0  0  0  0  0
   -4.2049   -1.7345   -1.5503 C   0  0  0  0  0  0  0  0  0  0  0  0
    3.0557    0.9788   -3.1932 H   0  0  0  0  0  0  0  0  0  0  0  0
    3.0542   -0.3134   -1.9851 H   0  0  0  0  0  0  0  0  0  0  0  0
    1.5781    0.0605   -2.8998 H   0  0  0  0  0  0  0  0  0  0  0  0
    1.4179    2.2709   -1.8207 H   0  0  0  0  0  0  0  0  0  0  0  0
    2.9476    1.9765   -0.9420 H   0  0  0  0  0  0  0  0  0  0  0  0
    4.4445   -1.4637    0.5826 H   0  0  0  0  0  0  0  0  0  0  0  0
    5.2841   -0.0229    1.2329 H   0  0  0  0  0  0  0  0  0  0  0  0
    3.2111   -1.7306    2.7081 H   0  0  0  0  0  0  0  0  0  0  0  0
    4.9557   -1.7336    3.0115 H   0  0  0  0  0  0  0  0  0  0  0  0
    3.9873   -0.2916    3.3711 H   0  0  0  0  0  0  0  0  0  0  0  0
   -0.0735   -3.0075   -1.1580 H   0  0  0  0  0  0  0  0  0  0  0  0
    0.0678   -1.2790   -1.6332 H   0  0  0  0  0  0  0  0  0  0  0  0
   -0.9245    3.0016    1.4952 H   0  0  0  0  0  0  0  0  0  0  0  0
   -0.6778    2.8760   -0.2685 H   0  0  0  0  0  0  0  0  0  0  0  0
   -2.5902    4.4089    0.3077 H   0  0  0  0  0  0  0  0  0  0  0  0
   -3.1045    3.0208   -0.6649 H   0  0  0  0  0  0  0  0  0  0  0  0
   -3.4196    3.0420    1.0777 H   0  0  0  0  0  0  0  0  0  0  0  0
   -5.3396    0.0206   -0.9694 H   0  0  0  0  0  0  0  0  0  0  0  0
   -4.1314    0.3019   -2.2586 H   0  0  0  0  0  0  0  0  0  0  0  0
   -3.2305   -1.9594   -1.9818 H   0  0  0  0  0  0  0  0  0  0  0  0
   -4.3012   -2.2652   -0.6063 H   0  0  0  0  0  0  0  0  0  0  0  0
   -4.9787   -2.0693   -2.2337 H   0  0  0  0  0  0  0  0  0  0  0  0
  1  2  1  0  0  0  0
  2  3  1  0  0  0  0
  3  4  2  0  0  0  0
  4  5  2  0  0  0  0
  4  6  2  0  0  0  0
  6  7  1  0  0  0  0
  7  8  1  0  0  0  0
  4  9  1  0  0  0  0
  9 10  1  0  0  0  0
 10 11  1  0  0  0  0
 11 12  1  0  0  0  0
 12 13  2  0  0  0  0
 12 14  2  0  0  0  0
 14 15  1  0  0  0  0
 15 16  1  0  0  0  0
 12 17  2  0  0  0  0
 17 18  1  0  0  0  0
 18 19  1  0  0  0  0
  1 20  1  0  0  0  0
  1 21  1  0  0  0  0
  1 22  1  0  0  0  0
  2 23  1  0  0  0  0
  2 24  1  0  0  0  0
  7 25  1  0  0  0  0
  7 26  1  0  0  0  0
  8 27  1  0  0  0  0
  8 28  1  0  0  0  0
  8 29  1  0  0  0  0
 10 30  1  0  0  0  0
 10 31  1  0  0  0  0
 15 32  1  0  0  0  0
 15 33  1  0  0  0  0
 16 34  1  0  0  0  0
 16 35  1  0  0  0  0
 16 36  1  0  0  0  0
 18 37  1  0  0  0  0
 18 38  1  0  0  0  0
 19 39  1  0  0  0  0
 19 40  1  0  0  0  0
 19 41  1  0  0  0  0
M  END
