 xtb: 6.7.1 (edcfbbe)
          04092505203D

 41 40  0     0  0            999 V2000
    4.4354   -1.6260   -0.8199 C   0  0  0  0  0  0  0  0  0  0  0  0
    4.6233   -0.1238   -0.7653 C   0  0  0  0  0  0  0  0  0  0  0  0
    3.5822    0.5385   -0.0255 O   0  0  0  0  0  0  0  0  0  0  0  0
    2.0674    0.5732   -0.5162 P   0  0  0  0  0  0  0  0  0  0  0  0
    1.8453    0.7264   -2.4556 S   0  0  0  0  0  0  0  0  0  0  0  0
    1.5151    1.8180    0.2814 O   0  0  0  0  0  0  0  0  0  0  0  0
    2.0051    2.2859    1.5608 C   0  0  0  0  0  0  0  0  0  0  0  0
    1.7426    1.2930    2.6728 C   0  0  0  0  0  0  0  0  0  0  0  0
    1.2318   -1.1852    0.3535 S   0  0  0  0  0  0  0  0  0  0  0  0
    0.1337   -1.7442   -0.9845 C   0  0  0  0  0  0  0  0  0  0  0  0
   -1.5710   -1.9953   -0.4402 S   0  0  0  0  0  0  0  0  0  0  0  0
   -1.9901   -0.0060    0.1869 P   0  0  0  0  0  0  0  0  0  0  0  0
   -1.3805    1.4391   -0.9859 S   0  0  0  0  0  0  0  0  0  0  0  0
   -1.3821    0.1047    1.6387 O   0  0  0  0  0  0  0  0  0  0  0  0
   -1.7162   -0.8222    2.7071 C   0  0  0  0  0  0  0  0  0  0  0  0
   -2.7316   -0.2043    3.6453 C   0  0  0  0  0  0  0  0  0  0  0  0
   -3.5530   -0.0385    0.4760 O   0  0  0  0  0  0  0  0  0  0  0  0
   -4.5393    0.2262   -0.5368 C   0  0  0  0  0  0  0  0  0  0  0  0
   -4.5578   -0.8356   -1.6171 C   0  0  0  0  0  0  0  0  0  0  0  0
    3.5681   -1.8681   -1.4321 H   0  0  0  0  0  0  0  0  0  0  0  0
    5.3156   -2.0774   -1.2662 H   0  0  0  0  0  0  0  0  0  0  0  0
    4.2884   -2.0288    0.1789 H   0  0  0  0  0  0  0  0  0  0  0  0
    4.6457    0.2955   -1.7759 H   0  0  0  0  0  0  0  0  0  0  0  0
    5.5327    0.1494   -0.2280 H   0  0  0  0  0  0  0  0  0  0  0  0
    3.0717    2.4980    1.4624 H   0  0  0  0  0  0  0  0  0  0  0  0
    1.4514    3.2145    1.7105 H   0  0  0  0  0  0  0  0  0  0  0  0
    2.0487    1.7288    3.6186 H   0  0  0  0  0  0  0  0  0  0  0  0
    0.6825    1.0551    2.7102 H   0  0  0  0  0  0  0  0  0  0  0  0
    2.3058    0.3770    2.5004 H   0  0  0  0  0  0  0  0  0  0  0  0
    0.4778   -2.7148   -1.3332 H   0  0  0  0  0  0  0  0  0  0  0  0
    0.1677   -1.0024   -1.7879 H   0  0  0  0  0  0  0  0  0  0  0  0
   -2.0953   -1.7482    2.2669 H   0  0  0  0  0  0  0  0  0  0  0  0
   -0.7676   -1.0191    3.2108 H   0  0  0  0  0  0  0  0  0  0  0  0
   -2.9151   -0.8892    4.4670 H   0  0  0  0  0  0  0  0  0  0  0  0
   -2.3562    0.7363    4.0390 H   0  0  0  0  0  0  0  0  0  0  0  0
   -3.6636   -0.0164    3.1190 H   0  0  0  0  0  0  0  0  0  0  0  0
   -5.4789    0.2528    0.0171 H   0  0  0  0  0  0  0  0  0  0  0  0
   -4.3328    1.2105   -0.9683 H   0  0  0  0  0  0  0  0  0  0  0  0
   -4.6348   -1.8258   -1.1747 H   0  0  0  0  0  0  0  0  0  0  0  0
   -5.4066   -0.6649   -2.2716 H   0  0  0  0  0  0  0  0  0  0  0  0
   -3.6441   -0.7835   -2.2075 H   0  0  0  0  0  0  0  0  0  0  0  0
  1  2  1  0  0  0  0
  2  3  1  0  0  0  0
  3  4  2  0  0  0  0
  4  5  2  0  0  0  0
  4  6  2  0  0  0  0
  6  7  1  0  0  0  0
  7  8  1  0  0  0  0
  4  9  1  0  0  0  0
  9 10  1  0  0  0  0
 10 11  1  0  0  0  0
 11 12  1  0  0  0  0
 12 13  2  0  0  0  0
 12 14  2  0  0  0  0
 14 15  1  0  0  0  0
 15 16  1  0  0  0  0
 12 17  2  0  0  0  0
 17 18  1  0  0  0  0
 18 19  1  0  0  0  0
  1 20  1  0  0  0  0
  1 21  1  0  0  0  0
  1 22  1  0  0  0  0
  2 23  1  0  0  0  0
  2 24  1  0  0  0  0
  7 25  1  0  0  0  0
  7 26  1  0  0  0  0
  8 27  1  0  0  0  0
  8 28  1  0  0  0  0
  8 29  1  0  0  0  0
 10 30  1  0  0  0  0
 10 31  1  0  0  0  0
 15 32  1  0  0  0  0
 15 33  1  0  0  0  0
 16 34  1  0  0  0  0
 16 35  1  0  0  0  0
 16 36  1  0  0  0  0
 18 37  1  0  0  0  0
 18 38  1  0  0  0  0
 19 39  1  0  0  0  0
 19 40  1  0  0  0  0
 19 41  1  0  0  0  0
M  END
