 xtb: 6.7.1 (edcfbbe)
          04092505213D

 41 40  0     0  0            999 V2000
    2.4054   -3.1159    1.2243 C   0  0  0  0  0  0  0  0  0  0  0  0
    1.2083   -2.4307    0.5973 C   0  0  0  0  0  0  0  0  0  0  0  0
    1.3052   -1.0012    0.7303 O   0  0  0  0  0  0  0  0  0  0  0  0
    2.2255   -0.1032   -0.2196 P   0  0  0  0  0  0  0  0  0  0  0  0
    2.9205   -0.9661   -1.8268 S   0  0  0  0  0  0  0  0  0  0  0  0
    3.3909    0.4320    0.7080 O   0  0  0  0  0  0  0  0  0  0  0  0
    3.2029    0.9106    2.0629 C   0  0  0  0  0  0  0  0  0  0  0  0
    3.0287    2.4155    2.0958 C   0  0  0  0  0  0  0  0  0  0  0  0
    0.9713    1.5810   -0.5337 S   0  0  0  0  0  0  0  0  0  0  0  0
    0.1084    0.9242   -1.9819 C   0  0  0  0  0  0  0  0  0  0  0  0
   -0.8512   -0.5698   -1.6359 S   0  0  0  0  0  0  0  0  0  0  0  0
   -2.2009    0.3263   -0.2629 P   0  0  0  0  0  0  0  0  0  0  0  0
   -2.7892    2.1363   -0.6970 S   0  0  0  0  0  0  0  0  0  0  0  0
   -1.4086    0.1460    1.1139 O   0  0  0  0  0  0  0  0  0  0  0  0
   -1.3579    1.1687    2.1247 C   0  0  0  0  0  0  0  0  0  0  0  0
   -2.6334    1.1867    2.9421 C   0  0  0  0  0  0  0  0  0  0  0  0
   -3.4185   -0.6814   -0.1812 O   0  0  0  0  0  0  0  0  0  0  0  0
   -3.3295   -2.0316    0.3378 C   0  0  0  0  0  0  0  0  0  0  0  0
   -3.0884   -3.0337   -0.7730 C   0  0  0  0  0  0  0  0  0  0  0  0
    2.4910   -2.8497    2.2745 H   0  0  0  0  0  0  0  0  0  0  0  0
    2.2929   -4.1915    1.1330 H   0  0  0  0  0  0  0  0  0  0  0  0
    3.3137   -2.8100    0.7061 H   0  0  0  0  0  0  0  0  0  0  0  0
    0.2780   -2.6858    1.1072 H   0  0  0  0  0  0  0  0  0  0  0  0
    1.1293   -2.6825   -0.4647 H   0  0  0  0  0  0  0  0  0  0  0  0
    2.3429    0.3997    2.5015 H   0  0  0  0  0  0  0  0  0  0  0  0
    4.1166    0.6084    2.5778 H   0  0  0  0  0  0  0  0  0  0  0  0
    2.9803    2.7447    3.1291 H   0  0  0  0  0  0  0  0  0  0  0  0
    3.8692    2.8980    1.6049 H   0  0  0  0  0  0  0  0  0  0  0  0
    2.1137    2.7090    1.5848 H   0  0  0  0  0  0  0  0  0  0  0  0
    0.8363    0.6529   -2.7464 H   0  0  0  0  0  0  0  0  0  0  0  0
   -0.5596    1.7132   -2.3269 H   0  0  0  0  0  0  0  0  0  0  0  0
   -0.4887    0.9062    2.7296 H   0  0  0  0  0  0  0  0  0  0  0  0
   -1.1933    2.1365    1.6409 H   0  0  0  0  0  0  0  0  0  0  0  0
   -2.5563    1.9471    3.7126 H   0  0  0  0  0  0  0  0  0  0  0  0
   -3.4779    1.4228    2.2953 H   0  0  0  0  0  0  0  0  0  0  0  0
   -2.8033    0.2186    3.4059 H   0  0  0  0  0  0  0  0  0  0  0  0
   -2.5369   -2.0695    1.0883 H   0  0  0  0  0  0  0  0  0  0  0  0
   -4.2986   -2.1952    0.8124 H   0  0  0  0  0  0  0  0  0  0  0  0
   -3.8588   -2.9388   -1.5332 H   0  0  0  0  0  0  0  0  0  0  0  0
   -2.1191   -2.8672   -1.2391 H   0  0  0  0  0  0  0  0  0  0  0  0
   -3.1161   -4.0365   -0.3584 H   0  0  0  0  0  0  0  0  0  0  0  0
  1  2  1  0  0  0  0
  2  3  1  0  0  0  0
  3  4  1  0  0  0  0
  4  5  2  0  0  0  0
  4  6  2  0  0  0  0
  6  7  1  0  0  0  0
  7  8  1  0  0  0  0
  4  9  1  0  0  0  0
  9 10  1  0  0  0  0
 10 11  1  0  0  0  0
 11 12  1  0  0  0  0
 12 13  2  0  0  0  0
 12 14  1  0  0  0  0
 14 15  1  0  0  0  0
 15 16  1  0  0  0  0
 12 17  2  0  0  0  0
 17 18  1  0  0  0  0
 18 19  1  0  0  0  0
  1 20  1  0  0  0  0
  1 21  1  0  0  0  0
  1 22  1  0  0  0  0
  2 23  1  0  0  0  0
  2 24  1  0  0  0  0
  7 25  1  0  0  0  0
  7 26  1  0  0  0  0
  8 27  1  0  0  0  0
  8 28  1  0  0  0  0
  8 29  1  0  0  0  0
 10 30  1  0  0  0  0
 10 31  1  0  0  0  0
 15 32  1  0  0  0  0
 15 33  1  0  0  0  0
 16 34  1  0  0  0  0
 16 35  1  0  0  0  0
 16 36  1  0  0  0  0
 18 37  1  0  0  0  0
 18 38  1  0  0  0  0
 19 39  1  0  0  0  0
 19 40  1  0  0  0  0
 19 41  1  0  0  0  0
M  END
