 xtb: 6.7.1 (edcfbbe)
          04092505213D

 41 40  0     0  0            999 V2000
    2.6952   -3.2099   -0.0197 C   0  0  0  0  0  0  0  0  0  0  0  0
    3.3691   -2.2950   -1.0206 C   0  0  0  0  0  0  0  0  0  0  0  0
    3.5532   -0.9547   -0.5065 O   0  0  0  0  0  0  0  0  0  0  0  0
    2.4001    0.0750   -0.1702 P   0  0  0  0  0  0  0  0  0  0  0  0
    3.0919    1.8996   -0.0530 S   0  0  0  0  0  0  0  0  0  0  0  0
    1.6528   -0.4428    1.1481 O   0  0  0  0  0  0  0  0  0  0  0  0
    1.8595    0.1603    2.4366 C   0  0  0  0  0  0  0  0  0  0  0  0
    3.1888   -0.2638    3.0268 C   0  0  0  0  0  0  0  0  0  0  0  0
    0.9210   -0.3049   -1.6374 S   0  0  0  0  0  0  0  0  0  0  0  0
    0.0395    1.2613   -1.4130 C   0  0  0  0  0  0  0  0  0  0  0  0
   -0.7947    1.3935    0.1813 S   0  0  0  0  0  0  0  0  0  0  0  0
   -2.6001    0.3365   -0.2943 P   0  0  0  0  0  0  0  0  0  0  0  0
   -2.9591    0.1771   -2.2132 S   0  0  0  0  0  0  0  0  0  0  0  0
   -3.7742    1.1185    0.4014 O   0  0  0  0  0  0  0  0  0  0  0  0
   -4.0707    1.1265    1.8199 C   0  0  0  0  0  0  0  0  0  0  0  0
   -2.9448    1.7097    2.6467 C   0  0  0  0  0  0  0  0  0  0  0  0
   -2.5567   -0.9918    0.5836 O   0  0  0  0  0  0  0  0  0  0  0  0
   -1.5366   -2.0027    0.5355 C   0  0  0  0  0  0  0  0  0  0  0  0
   -1.5955   -2.8254   -0.7359 C   0  0  0  0  0  0  0  0  0  0  0  0
    2.6514   -4.2127   -0.4328 H   0  0  0  0  0  0  0  0  0  0  0  0
    3.2581   -3.2305    0.9097 H   0  0  0  0  0  0  0  0  0  0  0  0
    1.6845   -2.8641    0.1835 H   0  0  0  0  0  0  0  0  0  0  0  0
    2.7892   -2.2326   -1.9453 H   0  0  0  0  0  0  0  0  0  0  0  0
    4.3867   -2.6198   -1.2439 H   0  0  0  0  0  0  0  0  0  0  0  0
    1.8116    1.2483    2.3277 H   0  0  0  0  0  0  0  0  0  0  0  0
    1.0180   -0.1874    3.0371 H   0  0  0  0  0  0  0  0  0  0  0  0
    3.9974    0.0612    2.3722 H   0  0  0  0  0  0  0  0  0  0  0  0
    3.3162    0.1966    4.0012 H   0  0  0  0  0  0  0  0  0  0  0  0
    3.2309   -1.3447    3.1295 H   0  0  0  0  0  0  0  0  0  0  0  0
   -0.7009    1.3170   -2.2129 H   0  0  0  0  0  0  0  0  0  0  0  0
    0.7533    2.0832   -1.4650 H   0  0  0  0  0  0  0  0  0  0  0  0
   -4.9717    1.7387    1.8801 H   0  0  0  0  0  0  0  0  0  0  0  0
   -4.2946    0.1033    2.1261 H   0  0  0  0  0  0  0  0  0  0  0  0
   -2.0592    1.0802    2.5800 H   0  0  0  0  0  0  0  0  0  0  0  0
   -2.6889    2.7055    2.2936 H   0  0  0  0  0  0  0  0  0  0  0  0
   -3.2592    1.7680    3.6841 H   0  0  0  0  0  0  0  0  0  0  0  0
   -0.5593   -1.5231    0.6487 H   0  0  0  0  0  0  0  0  0  0  0  0
   -1.7449   -2.6181    1.4132 H   0  0  0  0  0  0  0  0  0  0  0  0
   -2.5985   -3.2190   -0.8798 H   0  0  0  0  0  0  0  0  0  0  0  0
   -1.3356   -2.2166   -1.5998 H   0  0  0  0  0  0  0  0  0  0  0  0
   -0.8937   -3.6502   -0.6637 H   0  0  0  0  0  0  0  0  0  0  0  0
  1  2  1  0  0  0  0
  2  3  1  0  0  0  0
  3  4  2  0  0  0  0
  4  5  2  0  0  0  0
  4  6  1  0  0  0  0
  6  7  1  0  0  0  0
  7  8  1  0  0  0  0
  4  9  1  0  0  0  0
  9 10  1  0  0  0  0
 10 11  1  0  0  0  0
 11 12  1  0  0  0  0
 12 13  2  0  0  0  0
 12 14  2  0  0  0  0
 14 15  1  0  0  0  0
 15 16  1  0  0  0  0
 12 17  2  0  0  0  0
 17 18  1  0  0  0  0
 18 19  1  0  0  0  0
  1 20  1  0  0  0  0
  1 21  1  0  0  0  0
  1 22  1  0  0  0  0
  2 23  1  0  0  0  0
  2 24  1  0  0  0  0
  7 25  1  0  0  0  0
  7 26  1  0  0  0  0
  8 27  1  0  0  0  0
  8 28  1  0  0  0  0
  8 29  1  0  0  0  0
 10 30  1  0  0  0  0
 10 31  1  0  0  0  0
 15 32  1  0  0  0  0
 15 33  1  0  0  0  0
 16 34  1  0  0  0  0
 16 35  1  0  0  0  0
 16 36  1  0  0  0  0
 18 37  1  0  0  0  0
 18 38  1  0  0  0  0
 19 39  1  0  0  0  0
 19 40  1  0  0  0  0
 19 41  1  0  0  0  0
M  END
