 xtb: 6.7.1 (edcfbbe)
          04092505203D

 41 40  0     0  0            999 V2000
    3.6982   -1.8717   -2.2601 C   0  0  0  0  0  0  0  0  0  0  0  0
    3.9767   -0.3914   -2.1029 C   0  0  0  0  0  0  0  0  0  0  0  0
    3.5473    0.1098   -0.8241 O   0  0  0  0  0  0  0  0  0  0  0  0
    2.0162    0.1663   -0.4039 P   0  0  0  0  0  0  0  0  0  0  0  0
    0.7942    0.7015   -1.8389 S   0  0  0  0  0  0  0  0  0  0  0  0
    2.0144    1.2056    0.7819 O   0  0  0  0  0  0  0  0  0  0  0  0
    3.1065    1.4760    1.6942 C   0  0  0  0  0  0  0  0  0  0  0  0
    3.4610    0.2859    2.5605 C   0  0  0  0  0  0  0  0  0  0  0  0
    1.6667   -1.7452    0.4611 S   0  0  0  0  0  0  0  0  0  0  0  0
    0.0465   -1.4420    1.2061 C   0  0  0  0  0  0  0  0  0  0  0  0
   -1.3268   -1.4711    0.0139 S   0  0  0  0  0  0  0  0  0  0  0  0
   -2.1002    0.5025    0.2480 P   0  0  0  0  0  0  0  0  0  0  0  0
   -1.1110    1.6372    1.5018 S   0  0  0  0  0  0  0  0  0  0  0  0
   -3.6404    0.2404    0.5762 O   0  0  0  0  0  0  0  0  0  0  0  0
   -4.1421   -0.6634    1.5755 C   0  0  0  0  0  0  0  0  0  0  0  0
   -3.7511   -0.2570    2.9816 C   0  0  0  0  0  0  0  0  0  0  0  0
   -2.2337    1.2369   -1.1350 O   0  0  0  0  0  0  0  0  0  0  0  0
   -3.1310    0.8855   -2.2149 C   0  0  0  0  0  0  0  0  0  0  0  0
   -2.8104   -0.4661   -2.8168 C   0  0  0  0  0  0  0  0  0  0  0  0
    2.6235   -2.0441   -2.3003 H   0  0  0  0  0  0  0  0  0  0  0  0
    4.1449   -2.2237   -3.1844 H   0  0  0  0  0  0  0  0  0  0  0  0
    4.1114   -2.4280   -1.4227 H   0  0  0  0  0  0  0  0  0  0  0  0
    3.4683    0.1808   -2.8853 H   0  0  0  0  0  0  0  0  0  0  0  0
    5.0461   -0.1758   -2.1183 H   0  0  0  0  0  0  0  0  0  0  0  0
    3.9659    1.8024    1.1056 H   0  0  0  0  0  0  0  0  0  0  0  0
    2.7228    2.3068    2.2893 H   0  0  0  0  0  0  0  0  0  0  0  0
    2.5841   -0.0673    3.0975 H   0  0  0  0  0  0  0  0  0  0  0  0
    3.8573   -0.5238    1.9520 H   0  0  0  0  0  0  0  0  0  0  0  0
    4.2158    0.5915    3.2785 H   0  0  0  0  0  0  0  0  0  0  0  0
    0.0428   -0.4664    1.7034 H   0  0  0  0  0  0  0  0  0  0  0  0
   -0.1080   -2.2551    1.9104 H   0  0  0  0  0  0  0  0  0  0  0  0
   -5.2240   -0.6212    1.4369 H   0  0  0  0  0  0  0  0  0  0  0  0
   -3.7781   -1.6691    1.3454 H   0  0  0  0  0  0  0  0  0  0  0  0
   -2.6708   -0.3095    3.1045 H   0  0  0  0  0  0  0  0  0  0  0  0
   -4.0655    0.7644    3.1809 H   0  0  0  0  0  0  0  0  0  0  0  0
   -4.2243   -0.9256    3.6934 H   0  0  0  0  0  0  0  0  0  0  0  0
   -4.1536    0.9206   -1.8336 H   0  0  0  0  0  0  0  0  0  0  0  0
   -2.9706    1.6892   -2.9353 H   0  0  0  0  0  0  0  0  0  0  0  0
   -3.0315   -1.2643   -2.1099 H   0  0  0  0  0  0  0  0  0  0  0  0
   -3.4093   -0.6083   -3.7108 H   0  0  0  0  0  0  0  0  0  0  0  0
   -1.7556   -0.5114   -3.0804 H   0  0  0  0  0  0  0  0  0  0  0  0
  1  2  1  0  0  0  0
  2  3  1  0  0  0  0
  3  4  2  0  0  0  0
  4  5  2  0  0  0  0
  4  6  2  0  0  0  0
  6  7  1  0  0  0  0
  7  8  1  0  0  0  0
  4  9  1  0  0  0  0
  9 10  1  0  0  0  0
 10 11  1  0  0  0  0
 11 12  1  0  0  0  0
 12 13  2  0  0  0  0
 12 14  2  0  0  0  0
 14 15  1  0  0  0  0
 15 16  1  0  0  0  0
 12 17  2  0  0  0  0
 17 18  1  0  0  0  0
 18 19  1  0  0  0  0
  1 20  1  0  0  0  0
  1 21  1  0  0  0  0
  1 22  1  0  0  0  0
  2 23  1  0  0  0  0
  2 24  1  0  0  0  0
  7 25  1  0  0  0  0
  7 26  1  0  0  0  0
  8 27  1  0  0  0  0
  8 28  1  0  0  0  0
  8 29  1  0  0  0  0
 10 30  1  0  0  0  0
 10 31  1  0  0  0  0
 15 32  1  0  0  0  0
 15 33  1  0  0  0  0
 16 34  1  0  0  0  0
 16 35  1  0  0  0  0
 16 36  1  0  0  0  0
 18 37  1  0  0  0  0
 18 38  1  0  0  0  0
 19 39  1  0  0  0  0
 19 40  1  0  0  0  0
 19 41  1  0  0  0  0
M  END
