 xtb: 6.7.1 (edcfbbe)
          04092505213D

 41 40  0     0  0            999 V2000
    4.5457    1.1933    0.6438 C   0  0  0  0  0  0  0  0  0  0  0  0
    3.4700    1.2045   -0.4228 C   0  0  0  0  0  0  0  0  0  0  0  0
    2.7209   -0.0265   -0.4179 O   0  0  0  0  0  0  0  0  0  0  0  0
    1.6339   -0.3398    0.7124 P   0  0  0  0  0  0  0  0  0  0  0  0
    0.8939    1.2127    1.6335 S   0  0  0  0  0  0  0  0  0  0  0  0
    2.3027   -1.3068    1.7756 O   0  0  0  0  0  0  0  0  0  0  0  0
    3.0839   -2.4715    1.4085 C   0  0  0  0  0  0  0  0  0  0  0  0
    4.1845   -2.6412    2.4360 C   0  0  0  0  0  0  0  0  0  0  0  0
    0.4280   -1.6980   -0.4026 S   0  0  0  0  0  0  0  0  0  0  0  0
    0.2611   -0.7557   -1.9440 C   0  0  0  0  0  0  0  0  0  0  0  0
   -0.3401    0.9292   -1.6836 S   0  0  0  0  0  0  0  0  0  0  0  0
   -2.2910    0.3892   -1.0516 P   0  0  0  0  0  0  0  0  0  0  0  0
   -3.1131   -1.0983   -2.0141 S   0  0  0  0  0  0  0  0  0  0  0  0
   -3.1039    1.7294   -1.2407 O   0  0  0  0  0  0  0  0  0  0  0  0
   -2.6159    3.0703   -0.9972 C   0  0  0  0  0  0  0  0  0  0  0  0
   -2.2895    3.3141    0.4604 C   0  0  0  0  0  0  0  0  0  0  0  0
   -2.1927    0.1702    0.5268 O   0  0  0  0  0  0  0  0  0  0  0  0
   -2.6240   -1.0212    1.2154 C   0  0  0  0  0  0  0  0  0  0  0  0
   -1.8042   -1.1805    2.4791 C   0  0  0  0  0  0  0  0  0  0  0  0
    5.2192    0.3530    0.4954 H   0  0  0  0  0  0  0  0  0  0  0  0
    5.1106    2.1188    0.5957 H   0  0  0  0  0  0  0  0  0  0  0  0
    4.0838    1.1121    1.6277 H   0  0  0  0  0  0  0  0  0  0  0  0
    3.8911    1.2585   -1.4275 H   0  0  0  0  0  0  0  0  0  0  0  0
    2.7763    2.0360   -0.2649 H   0  0  0  0  0  0  0  0  0  0  0  0
    2.4070   -3.3286    1.4021 H   0  0  0  0  0  0  0  0  0  0  0  0
    3.4910   -2.3249    0.4050 H   0  0  0  0  0  0  0  0  0  0  0  0
    4.7531   -3.5358    2.2037 H   0  0  0  0  0  0  0  0  0  0  0  0
    4.8478   -1.7806    2.4269 H   0  0  0  0  0  0  0  0  0  0  0  0
    3.7525   -2.7366    3.4280 H   0  0  0  0  0  0  0  0  0  0  0  0
   -0.4541   -1.3069   -2.5568 H   0  0  0  0  0  0  0  0  0  0  0  0
    1.2282   -0.6756   -2.4333 H   0  0  0  0  0  0  0  0  0  0  0  0
   -1.7384    3.2370   -1.6281 H   0  0  0  0  0  0  0  0  0  0  0  0
   -3.4403    3.6993   -1.3372 H   0  0  0  0  0  0  0  0  0  0  0  0
   -2.0124    4.3553    0.5927 H   0  0  0  0  0  0  0  0  0  0  0  0
   -3.1519    3.0904    1.0826 H   0  0  0  0  0  0  0  0  0  0  0  0
   -1.4571    2.6885    0.7792 H   0  0  0  0  0  0  0  0  0  0  0  0
   -3.6834   -0.8937    1.4512 H   0  0  0  0  0  0  0  0  0  0  0  0
   -2.5111   -1.8827    0.5491 H   0  0  0  0  0  0  0  0  0  0  0  0
   -0.7578   -1.3645    2.2399 H   0  0  0  0  0  0  0  0  0  0  0  0
   -1.8636   -0.2761    3.0781 H   0  0  0  0  0  0  0  0  0  0  0  0
   -2.1902   -2.0206    3.0467 H   0  0  0  0  0  0  0  0  0  0  0  0
  1  2  1  0  0  0  0
  2  3  1  0  0  0  0
  3  4  1  0  0  0  0
  4  5  2  0  0  0  0
  4  6  2  0  0  0  0
  6  7  1  0  0  0  0
  7  8  1  0  0  0  0
  4  9  1  0  0  0  0
  9 10  1  0  0  0  0
 10 11  1  0  0  0  0
 11 12  1  0  0  0  0
 12 13  2  0  0  0  0
 12 14  2  0  0  0  0
 14 15  1  0  0  0  0
 15 16  1  0  0  0  0
 12 17  2  0  0  0  0
 17 18  1  0  0  0  0
 18 19  1  0  0  0  0
  1 20  1  0  0  0  0
  1 21  1  0  0  0  0
  1 22  1  0  0  0  0
  2 23  1  0  0  0  0
  2 24  1  0  0  0  0
  7 25  1  0  0  0  0
  7 26  1  0  0  0  0
  8 27  1  0  0  0  0
  8 28  1  0  0  0  0
  8 29  1  0  0  0  0
 10 30  1  0  0  0  0
 10 31  1  0  0  0  0
 15 32  1  0  0  0  0
 15 33  1  0  0  0  0
 16 34  1  0  0  0  0
 16 35  1  0  0  0  0
 16 36  1  0  0  0  0
 18 37  1  0  0  0  0
 18 38  1  0  0  0  0
 19 39  1  0  0  0  0
 19 40  1  0  0  0  0
 19 41  1  0  0  0  0
M  END
