 xtb: 6.7.1 (edcfbbe)
          04092505203D

 41 40  0     0  0            999 V2000
    2.5044   -0.3588   -2.7943 C   0  0  0  0  0  0  0  0  0  0  0  0
    2.7150    0.8026   -1.8441 C   0  0  0  0  0  0  0  0  0  0  0  0
    3.1223    0.3328   -0.5439 O   0  0  0  0  0  0  0  0  0  0  0  0
    2.1576    0.1379    0.6968 P   0  0  0  0  0  0  0  0  0  0  0  0
    1.1514    1.7026    1.3033 S   0  0  0  0  0  0  0  0  0  0  0  0
    3.1539   -0.3094    1.8337 O   0  0  0  0  0  0  0  0  0  0  0  0
    4.0617   -1.4335    1.7161 C   0  0  0  0  0  0  0  0  0  0  0  0
    5.4319   -0.9787    1.2576 C   0  0  0  0  0  0  0  0  0  0  0  0
    1.0254   -1.6125    0.2537 S   0  0  0  0  0  0  0  0  0  0  0  0
   -0.3000   -1.3693    1.4792 C   0  0  0  0  0  0  0  0  0  0  0  0
   -1.9522   -1.6311    0.7905 S   0  0  0  0  0  0  0  0  0  0  0  0
   -2.2031    0.1649   -0.2915 P   0  0  0  0  0  0  0  0  0  0  0  0
   -0.8646    0.7226   -1.6171 S   0  0  0  0  0  0  0  0  0  0  0  0
   -2.3949    1.1842    0.9076 O   0  0  0  0  0  0  0  0  0  0  0  0
   -2.2654    2.6075    0.7456 C   0  0  0  0  0  0  0  0  0  0  0  0
   -3.3941    3.1732   -0.0887 C   0  0  0  0  0  0  0  0  0  0  0  0
   -3.6864    0.0245   -0.8411 O   0  0  0  0  0  0  0  0  0  0  0  0
   -4.2117   -1.1054   -1.5635 C   0  0  0  0  0  0  0  0  0  0  0  0
   -3.3068   -1.5648   -2.6875 C   0  0  0  0  0  0  0  0  0  0  0  0
    2.2921    0.0330   -3.7835 H   0  0  0  0  0  0  0  0  0  0  0  0
    3.3942   -0.9805   -2.8319 H   0  0  0  0  0  0  0  0  0  0  0  0
    1.6590   -0.9624   -2.4726 H   0  0  0  0  0  0  0  0  0  0  0  0
    1.8043    1.4005   -1.7484 H   0  0  0  0  0  0  0  0  0  0  0  0
    3.5360    1.4424   -2.1730 H   0  0  0  0  0  0  0  0  0  0  0  0
    4.0999   -1.8540    2.7226 H   0  0  0  0  0  0  0  0  0  0  0  0
    3.6321   -2.1634    1.0241 H   0  0  0  0  0  0  0  0  0  0  0  0
    5.8189   -0.2227    1.9354 H   0  0  0  0  0  0  0  0  0  0  0  0
    6.1035   -1.8316    1.2500 H   0  0  0  0  0  0  0  0  0  0  0  0
    5.3759   -0.5561    0.2583 H   0  0  0  0  0  0  0  0  0  0  0  0
   -0.2247   -0.3525    1.8738 H   0  0  0  0  0  0  0  0  0  0  0  0
   -0.1893   -2.1122    2.2646 H   0  0  0  0  0  0  0  0  0  0  0  0
   -2.2740    2.9900    1.7671 H   0  0  0  0  0  0  0  0  0  0  0  0
   -1.2920    2.8221    0.2917 H   0  0  0  0  0  0  0  0  0  0  0  0
   -3.3405    2.7676   -1.0987 H   0  0  0  0  0  0  0  0  0  0  0  0
   -4.3527    2.9045    0.3469 H   0  0  0  0  0  0  0  0  0  0  0  0
   -3.3026    4.2538   -0.1336 H   0  0  0  0  0  0  0  0  0  0  0  0
   -4.3781   -1.9135   -0.8458 H   0  0  0  0  0  0  0  0  0  0  0  0
   -5.1691   -0.7439   -1.9433 H   0  0  0  0  0  0  0  0  0  0  0  0
   -3.7921   -2.3660   -3.2355 H   0  0  0  0  0  0  0  0  0  0  0  0
   -3.0933   -0.7416   -3.3656 H   0  0  0  0  0  0  0  0  0  0  0  0
   -2.3641   -1.9326   -2.2831 H   0  0  0  0  0  0  0  0  0  0  0  0
  1  2  1  0  0  0  0
  2  3  1  0  0  0  0
  3  4  2  0  0  0  0
  4  5  2  0  0  0  0
  4  6  2  0  0  0  0
  6  7  1  0  0  0  0
  7  8  1  0  0  0  0
  4  9  1  0  0  0  0
  9 10  1  0  0  0  0
 10 11  1  0  0  0  0
 11 12  1  0  0  0  0
 12 13  2  0  0  0  0
 12 14  2  0  0  0  0
 14 15  1  0  0  0  0
 15 16  1  0  0  0  0
 12 17  2  0  0  0  0
 17 18  1  0  0  0  0
 18 19  1  0  0  0  0
  1 20  1  0  0  0  0
  1 21  1  0  0  0  0
  1 22  1  0  0  0  0
  2 23  1  0  0  0  0
  2 24  1  0  0  0  0
  7 25  1  0  0  0  0
  7 26  1  0  0  0  0
  8 27  1  0  0  0  0
  8 28  1  0  0  0  0
  8 29  1  0  0  0  0
 10 30  1  0  0  0  0
 10 31  1  0  0  0  0
 15 32  1  0  0  0  0
 15 33  1  0  0  0  0
 16 34  1  0  0  0  0
 16 35  1  0  0  0  0
 16 36  1  0  0  0  0
 18 37  1  0  0  0  0
 18 38  1  0  0  0  0
 19 39  1  0  0  0  0
 19 40  1  0  0  0  0
 19 41  1  0  0  0  0
M  END
