 xtb: 6.7.1 (edcfbbe)
          04092507313D

 38 37  0     0  0            999 V2000
    3.9748   -2.4077    1.5788 C   0  0  0  0  0  0  0  0  0  0  0  0
    4.2914   -1.8909    0.1847 C   0  0  0  0  0  0  0  0  0  0  0  0
    3.0957   -1.8282   -0.6189 O   0  0  0  0  0  0  0  0  0  0  0  0
    2.3445   -0.7534   -0.5446 C   0  0  0  0  0  0  0  0  0  0  0  0
    2.6149    0.2377    0.1044 O   0  0  0  0  0  0  0  0  0  0  0  0
    1.0773   -0.8996   -1.3519 C   0  0  0  0  0  0  0  0  0  0  0  0
    0.3891    0.4492   -1.5324 C   0  0  0  0  0  0  0  0  0  0  0  0
    0.7617    0.9828   -2.4077 H   0  0  0  0  0  0  0  0  0  0  0  0
    0.5156    1.3512   -0.3168 C   0  0  0  0  0  0  0  0  0  0  0  0
   -0.0245    1.0835    0.7418 O   0  0  0  0  0  0  0  0  0  0  0  0
    1.0975    2.4821   -0.6072 O   0  0  0  0  0  0  0  0  0  0  0  0
    1.2870    3.4677    0.4305 C   0  0  0  0  0  0  0  0  0  0  0  0
    2.7433    3.4898    0.8620 C   0  0  0  0  0  0  0  0  0  0  0  0
   -1.4098    0.2621   -1.7914 S   0  0  0  0  0  0  0  0  0  0  0  0
   -2.1094   -0.3404    0.1118 P   0  0  0  0  0  0  0  0  0  0  0  0
   -1.2051   -1.7206    1.1877 S   0  0  0  0  0  0  0  0  0  0  0  0
   -2.6404    0.9849    0.8146 O   0  0  0  0  0  0  0  0  0  0  0  0
   -2.5970    1.1829    2.2333 C   0  0  0  0  0  0  0  0  0  0  0  0
   -3.5513   -0.8710   -0.3628 O   0  0  0  0  0  0  0  0  0  0  0  0
   -3.7124   -2.1280   -1.0258 C   0  0  0  0  0  0  0  0  0  0  0  0
    3.5005   -3.3833    1.5182 H   0  0  0  0  0  0  0  0  0  0  0  0
    4.8926   -2.4880    2.1516 H   0  0  0  0  0  0  0  0  0  0  0  0
    3.2981   -1.7237    2.0875 H   0  0  0  0  0  0  0  0  0  0  0  0
    4.9452   -2.5753   -0.3554 H   0  0  0  0  0  0  0  0  0  0  0  0
    4.7343   -0.8920    0.2306 H   0  0  0  0  0  0  0  0  0  0  0  0
    0.4417   -1.5814   -0.7741 H   0  0  0  0  0  0  0  0  0  0  0  0
    1.2857   -1.3713   -2.3105 H   0  0  0  0  0  0  0  0  0  0  0  0
    0.9890    4.4149   -0.0222 H   0  0  0  0  0  0  0  0  0  0  0  0
    0.6287    3.2215    1.2680 H   0  0  0  0  0  0  0  0  0  0  0  0
    3.3774    3.7545    0.0212 H   0  0  0  0  0  0  0  0  0  0  0  0
    2.8725    4.2162    1.6573 H   0  0  0  0  0  0  0  0  0  0  0  0
    3.0331    2.5050    1.2202 H   0  0  0  0  0  0  0  0  0  0  0  0
   -1.6297    0.8665    2.6254 H   0  0  0  0  0  0  0  0  0  0  0  0
   -3.3962    0.6167    2.7102 H   0  0  0  0  0  0  0  0  0  0  0  0
   -2.7373    2.2506    2.3828 H   0  0  0  0  0  0  0  0  0  0  0  0
   -3.3761   -2.0500   -2.0594 H   0  0  0  0  0  0  0  0  0  0  0  0
   -4.7763   -2.3471   -0.9849 H   0  0  0  0  0  0  0  0  0  0  0  0
   -3.1437   -2.9000   -0.5035 H   0  0  0  0  0  0  0  0  0  0  0  0
  1  2  1  0  0  0  0
  2  3  1  0  0  0  0
  3  4  4  0  0  0  0
  4  5  2  0  0  0  0
  4  6  1  0  0  0  0
  6  7  1  0  0  0  0
  7  8  1  0  0  0  0
  7  9  1  0  0  0  0
  9 10  2  0  0  0  0
  9 11  4  0  0  0  0
 11 12  1  0  0  0  0
 12 13  1  0  0  0  0
  7 14  1  0  0  0  0
 14 15  1  0  0  0  0
 15 16  2  0  0  0  0
 15 17  1  0  0  0  0
 17 18  1  0  0  0  0
 15 19  1  0  0  0  0
 19 20  1  0  0  0  0
  1 21  1  0  0  0  0
  1 22  1  0  0  0  0
  1 23  1  0  0  0  0
  2 24  1  0  0  0  0
  2 25  1  0  0  0  0
  6 26  1  0  0  0  0
  6 27  1  0  0  0  0
 12 28  1  0  0  0  0
 12 29  1  0  0  0  0
 13 30  1  0  0  0  0
 13 31  1  0  0  0  0
 13 32  1  0  0  0  0
 18 33  1  0  0  0  0
 18 34  1  0  0  0  0
 18 35  1  0  0  0  0
 20 36  1  0  0  0  0
 20 37  1  0  0  0  0
 20 38  1  0  0  0  0
M  END
