 xtb: 6.7.1 (edcfbbe)
          04092505213D

 41 40  0     0  0            999 V2000
    3.7199   -0.8385   -2.8067 C   0  0  0  0  0  0  0  0  0  0  0  0
    4.5037   -1.1924   -1.5583 C   0  0  0  0  0  0  0  0  0  0  0  0
    3.6535   -1.5372   -0.4507 O   0  0  0  0  0  0  0  0  0  0  0  0
    2.7076   -0.4806    0.2555 P   0  0  0  0  0  0  0  0  0  0  0  0
    3.4395    1.3299    0.4614 S   0  0  0  0  0  0  0  0  0  0  0  0
    2.4951   -1.3239    1.5784 O   0  0  0  0  0  0  0  0  0  0  0  0
    2.1553   -0.7370    2.8470 C   0  0  0  0  0  0  0  0  0  0  0  0
    0.7646   -0.1354    2.8520 C   0  0  0  0  0  0  0  0  0  0  0  0
    0.8666   -0.6540   -0.8183 S   0  0  0  0  0  0  0  0  0  0  0  0
    0.4639    1.0951   -1.0677 C   0  0  0  0  0  0  0  0  0  0  0  0
   -0.7449    1.7462    0.1199 S   0  0  0  0  0  0  0  0  0  0  0  0
   -2.3292    0.4612   -0.4338 P   0  0  0  0  0  0  0  0  0  0  0  0
   -2.5295    0.0391   -2.3289 S   0  0  0  0  0  0  0  0  0  0  0  0
   -3.6141    1.1802    0.1486 O   0  0  0  0  0  0  0  0  0  0  0  0
   -3.7114    1.5816    1.5397 C   0  0  0  0  0  0  0  0  0  0  0  0
   -5.1470    1.9887    1.7981 C   0  0  0  0  0  0  0  0  0  0  0  0
   -2.0304   -0.7807    0.5351 O   0  0  0  0  0  0  0  0  0  0  0  0
   -2.3754   -2.1277    0.1673 C   0  0  0  0  0  0  0  0  0  0  0  0
   -3.8699   -2.3564    0.2674 C   0  0  0  0  0  0  0  0  0  0  0  0
    3.1844    0.0990   -2.6608 H   0  0  0  0  0  0  0  0  0  0  0  0
    4.4066   -0.7228   -3.6393 H   0  0  0  0  0  0  0  0  0  0  0  0
    3.0017   -1.6212   -3.0384 H   0  0  0  0  0  0  0  0  0  0  0  0
    5.1435   -0.3567   -1.2572 H   0  0  0  0  0  0  0  0  0  0  0  0
    5.1103   -2.0869   -1.7071 H   0  0  0  0  0  0  0  0  0  0  0  0
    2.2360   -1.5714    3.5455 H   0  0  0  0  0  0  0  0  0  0  0  0
    2.9020    0.0250    3.0913 H   0  0  0  0  0  0  0  0  0  0  0  0
    0.5006    0.1534    3.8643 H   0  0  0  0  0  0  0  0  0  0  0  0
    0.7379    0.7509    2.2190 H   0  0  0  0  0  0  0  0  0  0  0  0
    0.0367   -0.8537    2.4814 H   0  0  0  0  0  0  0  0  0  0  0  0
    0.0495    1.1858   -2.0705 H   0  0  0  0  0  0  0  0  0  0  0  0
    1.3659    1.6982   -0.9454 H   0  0  0  0  0  0  0  0  0  0  0  0
   -3.4095    0.7399    2.1677 H   0  0  0  0  0  0  0  0  0  0  0  0
   -3.0220    2.4148    1.6993 H   0  0  0  0  0  0  0  0  0  0  0  0
   -5.8142    1.1498    1.6213 H   0  0  0  0  0  0  0  0  0  0  0  0
   -5.2442    2.3157    2.8283 H   0  0  0  0  0  0  0  0  0  0  0  0
   -5.4268    2.8017    1.1343 H   0  0  0  0  0  0  0  0  0  0  0  0
   -2.0207   -2.3135   -0.8514 H   0  0  0  0  0  0  0  0  0  0  0  0
   -1.8181   -2.7513    0.8679 H   0  0  0  0  0  0  0  0  0  0  0  0
   -4.0963   -3.3862    0.0102 H   0  0  0  0  0  0  0  0  0  0  0  0
   -4.2196   -2.1515    1.2759 H   0  0  0  0  0  0  0  0  0  0  0  0
   -4.3867   -1.6957   -0.4286 H   0  0  0  0  0  0  0  0  0  0  0  0
  1  2  1  0  0  0  0
  2  3  1  0  0  0  0
  3  4  2  0  0  0  0
  4  5  2  0  0  0  0
  4  6  2  0  0  0  0
  6  7  1  0  0  0  0
  7  8  1  0  0  0  0
  4  9  1  0  0  0  0
  9 10  1  0  0  0  0
 10 11  1  0  0  0  0
 11 12  1  0  0  0  0
 12 13  2  0  0  0  0
 12 14  2  0  0  0  0
 14 15  1  0  0  0  0
 15 16  1  0  0  0  0
 12 17  1  0  0  0  0
 17 18  1  0  0  0  0
 18 19  1  0  0  0  0
  1 20  1  0  0  0  0
  1 21  1  0  0  0  0
  1 22  1  0  0  0  0
  2 23  1  0  0  0  0
  2 24  1  0  0  0  0
  7 25  1  0  0  0  0
  7 26  1  0  0  0  0
  8 27  1  0  0  0  0
  8 28  1  0  0  0  0
  8 29  1  0  0  0  0
 10 30  1  0  0  0  0
 10 31  1  0  0  0  0
 15 32  1  0  0  0  0
 15 33  1  0  0  0  0
 16 34  1  0  0  0  0
 16 35  1  0  0  0  0
 16 36  1  0  0  0  0
 18 37  1  0  0  0  0
 18 38  1  0  0  0  0
 19 39  1  0  0  0  0
 19 40  1  0  0  0  0
 19 41  1  0  0  0  0
M  END
