 xtb: 6.7.1 (edcfbbe)
          04092507313D

 38 37  0     0  0            999 V2000
    2.3945   -4.4519   -1.1229 C   0  0  0  0  0  0  0  0  0  0  0  0
    3.5867   -3.5193   -1.2677 C   0  0  0  0  0  0  0  0  0  0  0  0
    3.3737   -2.3115   -0.5129 O   0  0  0  0  0  0  0  0  0  0  0  0
    2.7237   -1.3203   -1.0847 C   0  0  0  0  0  0  0  0  0  0  0  0
    2.3392   -1.3128   -2.2329 O   0  0  0  0  0  0  0  0  0  0  0  0
    2.5098   -0.1690   -0.1168 C   0  0  0  0  0  0  0  0  0  0  0  0
    1.0488    0.2557   -0.1864 C   0  0  0  0  0  0  0  0  0  0  0  0
    0.7773    0.4488   -1.2323 H   0  0  0  0  0  0  0  0  0  0  0  0
    0.7258    1.4983    0.6149 C   0  0  0  0  0  0  0  0  0  0  0  0
   -0.2902    1.5753    1.2817 O   0  0  0  0  0  0  0  0  0  0  0  0
    1.6158    2.4357    0.4896 O   0  0  0  0  0  0  0  0  0  0  0  0
    1.3528    3.7198    1.1035 C   0  0  0  0  0  0  0  0  0  0  0  0
    0.5134    4.5849    0.1785 C   0  0  0  0  0  0  0  0  0  0  0  0
   -0.0419   -1.0858    0.4278 S   0  0  0  0  0  0  0  0  0  0  0  0
   -1.8867   -0.0749    0.2689 P   0  0  0  0  0  0  0  0  0  0  0  0
   -2.1748    1.3970   -1.0081 S   0  0  0  0  0  0  0  0  0  0  0  0
   -2.6218   -1.4212   -0.2071 O   0  0  0  0  0  0  0  0  0  0  0  0
   -4.0191   -1.4363   -0.5147 C   0  0  0  0  0  0  0  0  0  0  0  0
   -2.5986    0.0864    1.6890 O   0  0  0  0  0  0  0  0  0  0  0  0
   -2.7894    1.3035    2.4108 C   0  0  0  0  0  0  0  0  0  0  0  0
    2.5920   -5.3771   -1.6537 H   0  0  0  0  0  0  0  0  0  0  0  0
    2.2142   -4.6678   -0.0736 H   0  0  0  0  0  0  0  0  0  0  0  0
    1.5042   -3.9858   -1.5396 H   0  0  0  0  0  0  0  0  0  0  0  0
    3.7472   -3.2540   -2.3163 H   0  0  0  0  0  0  0  0  0  0  0  0
    4.4893   -3.9560   -0.8407 H   0  0  0  0  0  0  0  0  0  0  0  0
    3.1341    0.6732   -0.4207 H   0  0  0  0  0  0  0  0  0  0  0  0
    2.7792   -0.4938    0.8866 H   0  0  0  0  0  0  0  0  0  0  0  0
    0.8425    3.5544    2.0552 H   0  0  0  0  0  0  0  0  0  0  0  0
    2.3420    4.1471    1.2648 H   0  0  0  0  0  0  0  0  0  0  0  0
    0.3313    5.5448    0.6498 H   0  0  0  0  0  0  0  0  0  0  0  0
    1.0297    4.7399   -0.7646 H   0  0  0  0  0  0  0  0  0  0  0  0
   -0.4423    4.1046   -0.0252 H   0  0  0  0  0  0  0  0  0  0  0  0
   -4.1944   -2.3726   -1.0385 H   0  0  0  0  0  0  0  0  0  0  0  0
   -4.2711   -0.5888   -1.1560 H   0  0  0  0  0  0  0  0  0  0  0  0
   -4.6041   -1.3934    0.4034 H   0  0  0  0  0  0  0  0  0  0  0  0
   -2.8313    2.1470    1.7206 H   0  0  0  0  0  0  0  0  0  0  0  0
   -1.9691    1.4417    3.1115 H   0  0  0  0  0  0  0  0  0  0  0  0
   -3.7354    1.1913    2.9361 H   0  0  0  0  0  0  0  0  0  0  0  0
  1  2  1  0  0  0  0
  2  3  1  0  0  0  0
  3  4  1  0  0  0  0
  4  5  2  0  0  0  0
  4  6  1  0  0  0  0
  6  7  1  0  0  0  0
  7  8  1  0  0  0  0
  7  9  1  0  0  0  0
  9 10  2  0  0  0  0
  9 11  4  0  0  0  0
 11 12  1  0  0  0  0
 12 13  1  0  0  0  0
  7 14  1  0  0  0  0
 14 15  1  0  0  0  0
 15 16  2  0  0  0  0
 15 17  1  0  0  0  0
 17 18  1  0  0  0  0
 15 19  2  0  0  0  0
 19 20  1  0  0  0  0
  1 21  1  0  0  0  0
  1 22  1  0  0  0  0
  1 23  1  0  0  0  0
  2 24  1  0  0  0  0
  2 25  1  0  0  0  0
  6 26  1  0  0  0  0
  6 27  1  0  0  0  0
 12 28  1  0  0  0  0
 12 29  1  0  0  0  0
 13 30  1  0  0  0  0
 13 31  1  0  0  0  0
 13 32  1  0  0  0  0
 18 33  1  0  0  0  0
 18 34  1  0  0  0  0
 18 35  1  0  0  0  0
 20 36  1  0  0  0  0
 20 37  1  0  0  0  0
 20 38  1  0  0  0  0
M  END
