 xtb: 6.7.1 (edcfbbe)
          04092505213D

 41 40  0     0  0            999 V2000
    5.6761   -0.2001   -0.8662 C   0  0  0  0  0  0  0  0  0  0  0  0
    4.5509   -1.0153   -1.4675 C   0  0  0  0  0  0  0  0  0  0  0  0
    3.4283   -1.1278   -0.5687 O   0  0  0  0  0  0  0  0  0  0  0  0
    2.5068    0.1093   -0.2030 P   0  0  0  0  0  0  0  0  0  0  0  0
    2.1808    1.3581   -1.6868 S   0  0  0  0  0  0  0  0  0  0  0  0
    3.2382    0.7218    1.0660 O   0  0  0  0  0  0  0  0  0  0  0  0
    2.9343    2.0282    1.5845 C   0  0  0  0  0  0  0  0  0  0  0  0
    1.5497    2.0873    2.1957 C   0  0  0  0  0  0  0  0  0  0  0  0
    0.8794   -0.9616    0.5840 S   0  0  0  0  0  0  0  0  0  0  0  0
    0.0300   -1.2359   -1.0145 C   0  0  0  0  0  0  0  0  0  0  0  0
   -1.6593   -1.7885   -0.7652 S   0  0  0  0  0  0  0  0  0  0  0  0
   -2.5479    0.0550   -0.1243 P   0  0  0  0  0  0  0  0  0  0  0  0
   -1.4387    1.6568   -0.3245 S   0  0  0  0  0  0  0  0  0  0  0  0
   -3.1052   -0.2476    1.3330 O   0  0  0  0  0  0  0  0  0  0  0  0
   -2.2793   -0.4283    2.4986 C   0  0  0  0  0  0  0  0  0  0  0  0
   -2.0831    0.8842    3.2322 C   0  0  0  0  0  0  0  0  0  0  0  0
   -3.8696    0.1989   -0.9601 O   0  0  0  0  0  0  0  0  0  0  0  0
   -4.7525   -0.8676   -1.3926 C   0  0  0  0  0  0  0  0  0  0  0  0
   -5.1699   -1.7899   -0.2688 C   0  0  0  0  0  0  0  0  0  0  0  0
    5.3617    0.8365   -0.7522 H   0  0  0  0  0  0  0  0  0  0  0  0
    5.9458   -0.5950    0.1097 H   0  0  0  0  0  0  0  0  0  0  0  0
    6.5388   -0.2366   -1.5240 H   0  0  0  0  0  0  0  0  0  0  0  0
    4.8480   -2.0501   -1.6428 H   0  0  0  0  0  0  0  0  0  0  0  0
    4.2014   -0.5613   -2.4006 H   0  0  0  0  0  0  0  0  0  0  0  0
    3.7125    2.2001    2.3294 H   0  0  0  0  0  0  0  0  0  0  0  0
    3.0259    2.7558    0.7715 H   0  0  0  0  0  0  0  0  0  0  0  0
    0.7936    1.9923    1.4158 H   0  0  0  0  0  0  0  0  0  0  0  0
    1.4203    1.2815    2.9141 H   0  0  0  0  0  0  0  0  0  0  0  0
    1.4142    3.0421    2.6935 H   0  0  0  0  0  0  0  0  0  0  0  0
    0.5385   -2.0259   -1.5623 H   0  0  0  0  0  0  0  0  0  0  0  0
    0.0358   -0.2933   -1.5680 H   0  0  0  0  0  0  0  0  0  0  0  0
   -2.8285   -1.1454    3.1118 H   0  0  0  0  0  0  0  0  0  0  0  0
   -1.3177   -0.8600    2.2040 H   0  0  0  0  0  0  0  0  0  0  0  0
   -1.4955    0.7104    4.1275 H   0  0  0  0  0  0  0  0  0  0  0  0
   -1.5614    1.5960    2.5969 H   0  0  0  0  0  0  0  0  0  0  0  0
   -3.0457    1.3056    3.5079 H   0  0  0  0  0  0  0  0  0  0  0  0
   -5.6038   -0.3265   -1.8087 H   0  0  0  0  0  0  0  0  0  0  0  0
   -4.2430   -1.4241   -2.1830 H   0  0  0  0  0  0  0  0  0  0  0  0
   -4.3109   -2.3499    0.0960 H   0  0  0  0  0  0  0  0  0  0  0  0
   -5.5960   -1.2171    0.5504 H   0  0  0  0  0  0  0  0  0  0  0  0
   -5.9116   -2.4883   -0.6443 H   0  0  0  0  0  0  0  0  0  0  0  0
  1  2  1  0  0  0  0
  2  3  1  0  0  0  0
  3  4  2  0  0  0  0
  4  5  2  0  0  0  0
  4  6  2  0  0  0  0
  6  7  1  0  0  0  0
  7  8  1  0  0  0  0
  4  9  1  0  0  0  0
  9 10  1  0  0  0  0
 10 11  1  0  0  0  0
 11 12  1  0  0  0  0
 12 13  2  0  0  0  0
 12 14  2  0  0  0  0
 14 15  1  0  0  0  0
 15 16  1  0  0  0  0
 12 17  2  0  0  0  0
 17 18  1  0  0  0  0
 18 19  1  0  0  0  0
  1 20  1  0  0  0  0
  1 21  1  0  0  0  0
  1 22  1  0  0  0  0
  2 23  1  0  0  0  0
  2 24  1  0  0  0  0
  7 25  1  0  0  0  0
  7 26  1  0  0  0  0
  8 27  1  0  0  0  0
  8 28  1  0  0  0  0
  8 29  1  0  0  0  0
 10 30  1  0  0  0  0
 10 31  1  0  0  0  0
 15 32  1  0  0  0  0
 15 33  1  0  0  0  0
 16 34  1  0  0  0  0
 16 35  1  0  0  0  0
 16 36  1  0  0  0  0
 18 37  1  0  0  0  0
 18 38  1  0  0  0  0
 19 39  1  0  0  0  0
 19 40  1  0  0  0  0
 19 41  1  0  0  0  0
M  END
