 xtb: 6.7.1 (edcfbbe)
          04092507313D

 38 37  0     0  0            999 V2000
    5.0136    0.4410   -1.0111 C   0  0  0  0  0  0  0  0  0  0  0  0
    4.6729   -1.0402   -1.0026 C   0  0  0  0  0  0  0  0  0  0  0  0
    3.2568   -1.2246   -1.1990 O   0  0  0  0  0  0  0  0  0  0  0  0
    2.4952   -1.5002   -0.1605 C   0  0  0  0  0  0  0  0  0  0  0  0
    2.8941   -1.6694    0.9690 O   0  0  0  0  0  0  0  0  0  0  0  0
    1.0342   -1.6002   -0.5692 C   0  0  0  0  0  0  0  0  0  0  0  0
    0.5458   -0.2567   -1.1190 C   0  0  0  0  0  0  0  0  0  0  0  0
    1.1594    0.0375   -1.9737 H   0  0  0  0  0  0  0  0  0  0  0  0
    0.6047    0.8110   -0.0477 C   0  0  0  0  0  0  0  0  0  0  0  0
   -0.4008    1.3313    0.4013 O   0  0  0  0  0  0  0  0  0  0  0  0
    1.8187    1.0704    0.3362 O   0  0  0  0  0  0  0  0  0  0  0  0
    2.0202    2.0284    1.4026 C   0  0  0  0  0  0  0  0  0  0  0  0
    2.1722    3.4311    0.8400 C   0  0  0  0  0  0  0  0  0  0  0  0
   -1.1693   -0.3412   -1.7323 S   0  0  0  0  0  0  0  0  0  0  0  0
   -2.2906   -0.1766    0.0522 P   0  0  0  0  0  0  0  0  0  0  0  0
   -1.7407   -0.8819    1.8122 S   0  0  0  0  0  0  0  0  0  0  0  0
   -3.1144    1.1936    0.0941 O   0  0  0  0  0  0  0  0  0  0  0  0
   -2.9109    2.2772    0.9994 C   0  0  0  0  0  0  0  0  0  0  0  0
   -3.4296   -1.1025   -0.6058 O   0  0  0  0  0  0  0  0  0  0  0  0
   -4.6227   -1.4383    0.1051 C   0  0  0  0  0  0  0  0  0  0  0  0
    4.4982    0.9440   -0.1975 H   0  0  0  0  0  0  0  0  0  0  0  0
    6.0843    0.5632   -0.8850 H   0  0  0  0  0  0  0  0  0  0  0  0
    4.7098    0.8892   -1.9525 H   0  0  0  0  0  0  0  0  0  0  0  0
    4.9571   -1.5057   -0.0550 H   0  0  0  0  0  0  0  0  0  0  0  0
    5.1465   -1.5605   -1.8362 H   0  0  0  0  0  0  0  0  0  0  0  0
    0.4481   -1.8997    0.3024 H   0  0  0  0  0  0  0  0  0  0  0  0
    0.9339   -2.3517   -1.3526 H   0  0  0  0  0  0  0  0  0  0  0  0
    1.1734    1.9642    2.0906 H   0  0  0  0  0  0  0  0  0  0  0  0
    2.9296    1.6896    1.9001 H   0  0  0  0  0  0  0  0  0  0  0  0
    2.9915    3.4655    0.1275 H   0  0  0  0  0  0  0  0  0  0  0  0
    1.2556    3.7387    0.3425 H   0  0  0  0  0  0  0  0  0  0  0  0
    2.3777    4.1178    1.6543 H   0  0  0  0  0  0  0  0  0  0  0  0
   -2.2515    3.0127    0.5439 H   0  0  0  0  0  0  0  0  0  0  0  0
   -2.4714    1.9133    1.9292 H   0  0  0  0  0  0  0  0  0  0  0  0
   -3.8958    2.7012    1.1833 H   0  0  0  0  0  0  0  0  0  0  0  0
   -4.3770   -1.7580    1.1203 H   0  0  0  0  0  0  0  0  0  0  0  0
   -5.0761   -2.2557   -0.4499 H   0  0  0  0  0  0  0  0  0  0  0  0
   -5.2924   -0.5795    0.1399 H   0  0  0  0  0  0  0  0  0  0  0  0
  1  2  1  0  0  0  0
  2  3  1  0  0  0  0
  3  4  1  0  0  0  0
  4  5  2  0  0  0  0
  4  6  1  0  0  0  0
  6  7  1  0  0  0  0
  7  8  1  0  0  0  0
  7  9  1  0  0  0  0
  9 10  2  0  0  0  0
  9 11  4  0  0  0  0
 11 12  1  0  0  0  0
 12 13  1  0  0  0  0
  7 14  1  0  0  0  0
 14 15  1  0  0  0  0
 15 16  2  0  0  0  0
 15 17  2  0  0  0  0
 17 18  1  0  0  0  0
 15 19  1  0  0  0  0
 19 20  1  0  0  0  0
  1 21  1  0  0  0  0
  1 22  1  0  0  0  0
  1 23  1  0  0  0  0
  2 24  1  0  0  0  0
  2 25  1  0  0  0  0
  6 26  1  0  0  0  0
  6 27  1  0  0  0  0
 12 28  1  0  0  0  0
 12 29  1  0  0  0  0
 13 30  1  0  0  0  0
 13 31  1  0  0  0  0
 13 32  1  0  0  0  0
 18 33  1  0  0  0  0
 18 34  1  0  0  0  0
 18 35  1  0  0  0  0
 20 36  1  0  0  0  0
 20 37  1  0  0  0  0
 20 38  1  0  0  0  0
M  END
