 xtb: 6.7.1 (edcfbbe)
          04092505213D

 41 40  0     0  0            999 V2000
    2.7816   -1.0535   -2.5980 C   0  0  0  0  0  0  0  0  0  0  0  0
    2.8943    0.3525   -2.0436 C   0  0  0  0  0  0  0  0  0  0  0  0
    3.2254    0.3230   -0.6450 O   0  0  0  0  0  0  0  0  0  0  0  0
    2.2019    0.4645    0.5552 P   0  0  0  0  0  0  0  0  0  0  0  0
    1.0853    2.0755    0.5576 S   0  0  0  0  0  0  0  0  0  0  0  0
    3.1635    0.5121    1.8030 O   0  0  0  0  0  0  0  0  0  0  0  0
    3.9002   -0.5955    2.3787 C   0  0  0  0  0  0  0  0  0  0  0  0
    4.7679   -1.3207    1.3737 C   0  0  0  0  0  0  0  0  0  0  0  0
    1.1724   -1.3943    0.7094 S   0  0  0  0  0  0  0  0  0  0  0  0
   -0.2446   -0.8054    1.6910 C   0  0  0  0  0  0  0  0  0  0  0  0
   -1.8530   -1.2831    1.0111 S   0  0  0  0  0  0  0  0  0  0  0  0
   -2.0121    0.0879   -0.6135 P   0  0  0  0  0  0  0  0  0  0  0  0
   -0.6392   -0.0117   -1.9995 S   0  0  0  0  0  0  0  0  0  0  0  0
   -2.1553    1.5376   -0.0273 O   0  0  0  0  0  0  0  0  0  0  0  0
   -3.2020    1.9790    0.8759 C   0  0  0  0  0  0  0  0  0  0  0  0
   -2.7072    1.9939    2.3088 C   0  0  0  0  0  0  0  0  0  0  0  0
   -3.4846   -0.2268   -1.1221 O   0  0  0  0  0  0  0  0  0  0  0  0
   -3.7852   -1.4382   -1.8463 C   0  0  0  0  0  0  0  0  0  0  0  0
   -5.0863   -1.2248   -2.5924 C   0  0  0  0  0  0  0  0  0  0  0  0
    3.6924   -1.6100   -2.3964 H   0  0  0  0  0  0  0  0  0  0  0  0
    1.9357   -1.5698   -2.1497 H   0  0  0  0  0  0  0  0  0  0  0  0
    2.6197   -0.9964   -3.6693 H   0  0  0  0  0  0  0  0  0  0  0  0
    1.9630    0.9076   -2.1901 H   0  0  0  0  0  0  0  0  0  0  0  0
    3.7178    0.8981   -2.5083 H   0  0  0  0  0  0  0  0  0  0  0  0
    4.4965   -0.1149    3.1556 H   0  0  0  0  0  0  0  0  0  0  0  0
    3.1807   -1.2817    2.8325 H   0  0  0  0  0  0  0  0  0  0  0  0
    5.4163   -0.6177    0.8576 H   0  0  0  0  0  0  0  0  0  0  0  0
    5.3746   -2.0544    1.8956 H   0  0  0  0  0  0  0  0  0  0  0  0
    4.1469   -1.8322    0.6409 H   0  0  0  0  0  0  0  0  0  0  0  0
   -0.1831    0.2849    1.7500 H   0  0  0  0  0  0  0  0  0  0  0  0
   -0.1993   -1.2656    2.6745 H   0  0  0  0  0  0  0  0  0  0  0  0
   -3.4345    2.9873    0.5301 H   0  0  0  0  0  0  0  0  0  0  0  0
   -4.0734    1.3337    0.7541 H   0  0  0  0  0  0  0  0  0  0  0  0
   -1.7523    2.5131    2.3603 H   0  0  0  0  0  0  0  0  0  0  0  0
   -3.4298    2.5179    2.9263 H   0  0  0  0  0  0  0  0  0  0  0  0
   -2.5858    0.9826    2.6892 H   0  0  0  0  0  0  0  0  0  0  0  0
   -2.9582   -1.6475   -2.5328 H   0  0  0  0  0  0  0  0  0  0  0  0
   -3.8664   -2.2528   -1.1219 H   0  0  0  0  0  0  0  0  0  0  0  0
   -4.9835   -0.4009   -3.2932 H   0  0  0  0  0  0  0  0  0  0  0  0
   -5.3352   -2.1295   -3.1370 H   0  0  0  0  0  0  0  0  0  0  0  0
   -5.8840   -0.9945   -1.8923 H   0  0  0  0  0  0  0  0  0  0  0  0
  1  2  1  0  0  0  0
  2  3  1  0  0  0  0
  3  4  2  0  0  0  0
  4  5  2  0  0  0  0
  4  6  2  0  0  0  0
  6  7  1  0  0  0  0
  7  8  1  0  0  0  0
  4  9  1  0  0  0  0
  9 10  1  0  0  0  0
 10 11  1  0  0  0  0
 11 12  1  0  0  0  0
 12 13  2  0  0  0  0
 12 14  2  0  0  0  0
 14 15  1  0  0  0  0
 15 16  1  0  0  0  0
 12 17  2  0  0  0  0
 17 18  1  0  0  0  0
 18 19  1  0  0  0  0
  1 20  1  0  0  0  0
  1 21  1  0  0  0  0
  1 22  1  0  0  0  0
  2 23  1  0  0  0  0
  2 24  1  0  0  0  0
  7 25  1  0  0  0  0
  7 26  1  0  0  0  0
  8 27  1  0  0  0  0
  8 28  1  0  0  0  0
  8 29  1  0  0  0  0
 10 30  1  0  0  0  0
 10 31  1  0  0  0  0
 15 32  1  0  0  0  0
 15 33  1  0  0  0  0
 16 34  1  0  0  0  0
 16 35  1  0  0  0  0
 16 36  1  0  0  0  0
 18 37  1  0  0  0  0
 18 38  1  0  0  0  0
 19 39  1  0  0  0  0
 19 40  1  0  0  0  0
 19 41  1  0  0  0  0
M  END
