 xtb: 6.7.1 (edcfbbe)
          04092505213D

 41 40  0     0  0            999 V2000
    3.3366   -1.6199   -2.5689 C   0  0  0  0  0  0  0  0  0  0  0  0
    2.0737   -1.0500   -1.9569 C   0  0  0  0  0  0  0  0  0  0  0  0
    2.3824    0.0484   -1.0661 O   0  0  0  0  0  0  0  0  0  0  0  0
    2.5333   -0.0948    0.4976 P   0  0  0  0  0  0  0  0  0  0  0  0
    3.0097    1.6053    1.3339 S   0  0  0  0  0  0  0  0  0  0  0  0
    3.5906   -1.2719    0.6457 O   0  0  0  0  0  0  0  0  0  0  0  0
    4.3183   -1.5104    1.8651 C   0  0  0  0  0  0  0  0  0  0  0  0
    3.4174   -1.9595    2.9969 C   0  0  0  0  0  0  0  0  0  0  0  0
    0.7011   -0.9710    1.1551 S   0  0  0  0  0  0  0  0  0  0  0  0
   -0.2187    0.5810    1.2493 C   0  0  0  0  0  0  0  0  0  0  0  0
   -0.6141    1.2723   -0.3884 S   0  0  0  0  0  0  0  0  0  0  0  0
   -2.5713    0.4339   -0.5650 P   0  0  0  0  0  0  0  0  0  0  0  0
   -3.4521    0.8081   -2.2714 S   0  0  0  0  0  0  0  0  0  0  0  0
   -3.3424    0.8746    0.7480 O   0  0  0  0  0  0  0  0  0  0  0  0
   -4.1736    2.0484    0.7666 C   0  0  0  0  0  0  0  0  0  0  0  0
   -3.3537    3.3232    0.7316 C   0  0  0  0  0  0  0  0  0  0  0  0
   -2.3820   -1.0811   -0.1386 O   0  0  0  0  0  0  0  0  0  0  0  0
   -1.8426   -2.0509   -1.0592 C   0  0  0  0  0  0  0  0  0  0  0  0
   -2.9608   -2.8427   -1.7075 C   0  0  0  0  0  0  0  0  0  0  0  0
    3.8945   -0.8327   -3.0687 H   0  0  0  0  0  0  0  0  0  0  0  0
    3.9634   -2.0600   -1.7981 H   0  0  0  0  0  0  0  0  0  0  0  0
    3.0666   -2.3826   -3.2925 H   0  0  0  0  0  0  0  0  0  0  0  0
    1.5251   -1.8157   -1.4004 H   0  0  0  0  0  0  0  0  0  0  0  0
    1.4265   -0.6077   -2.7177 H   0  0  0  0  0  0  0  0  0  0  0  0
    5.0363   -2.2847    1.5911 H   0  0  0  0  0  0  0  0  0  0  0  0
    4.8470   -0.5913    2.1351 H   0  0  0  0  0  0  0  0  0  0  0  0
    4.0288   -2.2564    3.8430 H   0  0  0  0  0  0  0  0  0  0  0  0
    2.7670   -1.1419    3.3036 H   0  0  0  0  0  0  0  0  0  0  0  0
    2.8029   -2.7995    2.6827 H   0  0  0  0  0  0  0  0  0  0  0  0
    0.3972    1.3218    1.7605 H   0  0  0  0  0  0  0  0  0  0  0  0
   -1.1403    0.3799    1.7904 H   0  0  0  0  0  0  0  0  0  0  0  0
   -4.8547    2.0075   -0.0895 H   0  0  0  0  0  0  0  0  0  0  0  0
   -4.7389    1.9569    1.6951 H   0  0  0  0  0  0  0  0  0  0  0  0
   -4.0155    4.1785    0.8231 H   0  0  0  0  0  0  0  0  0  0  0  0
   -2.6340    3.3384    1.5464 H   0  0  0  0  0  0  0  0  0  0  0  0
   -2.8164    3.3938   -0.2140 H   0  0  0  0  0  0  0  0  0  0  0  0
   -1.2402   -1.5388   -1.8172 H   0  0  0  0  0  0  0  0  0  0  0  0
   -1.2006   -2.6894   -0.4483 H   0  0  0  0  0  0  0  0  0  0  0  0
   -2.5346   -3.6083   -2.3474 H   0  0  0  0  0  0  0  0  0  0  0  0
   -3.5752   -3.3098   -0.9434 H   0  0  0  0  0  0  0  0  0  0  0  0
   -3.5859   -2.1841   -2.3069 H   0  0  0  0  0  0  0  0  0  0  0  0
  1  2  1  0  0  0  0
  2  3  1  0  0  0  0
  3  4  2  0  0  0  0
  4  5  2  0  0  0  0
  4  6  2  0  0  0  0
  6  7  1  0  0  0  0
  7  8  1  0  0  0  0
  4  9  1  0  0  0  0
  9 10  1  0  0  0  0
 10 11  1  0  0  0  0
 11 12  1  0  0  0  0
 12 13  2  0  0  0  0
 12 14  2  0  0  0  0
 14 15  1  0  0  0  0
 15 16  1  0  0  0  0
 12 17  2  0  0  0  0
 17 18  1  0  0  0  0
 18 19  1  0  0  0  0
  1 20  1  0  0  0  0
  1 21  1  0  0  0  0
  1 22  1  0  0  0  0
  2 23  1  0  0  0  0
  2 24  1  0  0  0  0
  7 25  1  0  0  0  0
  7 26  1  0  0  0  0
  8 27  1  0  0  0  0
  8 28  1  0  0  0  0
  8 29  1  0  0  0  0
 10 30  1  0  0  0  0
 10 31  1  0  0  0  0
 15 32  1  0  0  0  0
 15 33  1  0  0  0  0
 16 34  1  0  0  0  0
 16 35  1  0  0  0  0
 16 36  1  0  0  0  0
 18 37  1  0  0  0  0
 18 38  1  0  0  0  0
 19 39  1  0  0  0  0
 19 40  1  0  0  0  0
 19 41  1  0  0  0  0
M  END
