 xtb: 6.7.1 (edcfbbe)
          04092507313D

 38 37  0     0  0            999 V2000
    5.2813   -1.1159   -2.1499 C   0  0  0  0  0  0  0  0  0  0  0  0
    4.2997   -0.1306   -1.5352 C   0  0  0  0  0  0  0  0  0  0  0  0
    2.9660   -0.6747   -1.5222 O   0  0  0  0  0  0  0  0  0  0  0  0
    2.5961   -1.4143   -0.4986 C   0  0  0  0  0  0  0  0  0  0  0  0
    3.2921   -1.6791    0.4556 O   0  0  0  0  0  0  0  0  0  0  0  0
    1.1593   -1.8856   -0.6545 C   0  0  0  0  0  0  0  0  0  0  0  0
    0.2238   -0.6788   -0.5492 C   0  0  0  0  0  0  0  0  0  0  0  0
    0.4307    0.0376   -1.3472 H   0  0  0  0  0  0  0  0  0  0  0  0
    0.4140   -0.0111    0.8003 C   0  0  0  0  0  0  0  0  0  0  0  0
   -0.3201   -0.2116    1.7470 O   0  0  0  0  0  0  0  0  0  0  0  0
    1.4862    0.7348    0.8103 O   0  0  0  0  0  0  0  0  0  0  0  0
    1.8520    1.4060    2.0353 C   0  0  0  0  0  0  0  0  0  0  0  0
    3.3649    1.4681    2.1173 C   0  0  0  0  0  0  0  0  0  0  0  0
   -1.5090   -1.2320   -0.6703 S   0  0  0  0  0  0  0  0  0  0  0  0
   -2.4344    0.5348    0.0499 P   0  0  0  0  0  0  0  0  0  0  0  0
   -1.4133    2.1905   -0.1644 S   0  0  0  0  0  0  0  0  0  0  0  0
   -3.8155    0.5147   -0.7619 O   0  0  0  0  0  0  0  0  0  0  0  0
   -3.8512    0.7266   -2.1783 C   0  0  0  0  0  0  0  0  0  0  0  0
   -2.9866    0.3337    1.5124 O   0  0  0  0  0  0  0  0  0  0  0  0
   -3.6594   -0.8691    1.9358 C   0  0  0  0  0  0  0  0  0  0  0  0
    4.9575   -1.3940   -3.1489 H   0  0  0  0  0  0  0  0  0  0  0  0
    6.2621   -0.6555   -2.2066 H   0  0  0  0  0  0  0  0  0  0  0  0
    5.3467   -2.0109   -1.5354 H   0  0  0  0  0  0  0  0  0  0  0  0
    4.2177    0.7768   -2.1335 H   0  0  0  0  0  0  0  0  0  0  0  0
    4.5862    0.1139   -0.5091 H   0  0  0  0  0  0  0  0  0  0  0  0
    0.9342   -2.6067    0.1321 H   0  0  0  0  0  0  0  0  0  0  0  0
    1.0304   -2.3493   -1.6324 H   0  0  0  0  0  0  0  0  0  0  0  0
    1.4044    2.4034    1.9943 H   0  0  0  0  0  0  0  0  0  0  0  0
    1.4184    0.8519    2.8729 H   0  0  0  0  0  0  0  0  0  0  0  0
    3.7780    0.4623    2.0872 H   0  0  0  0  0  0  0  0  0  0  0  0
    3.7593    2.0421    1.2841 H   0  0  0  0  0  0  0  0  0  0  0  0
    3.6511    1.9444    3.0488 H   0  0  0  0  0  0  0  0  0  0  0  0
   -3.4459   -0.1444   -2.6928 H   0  0  0  0  0  0  0  0  0  0  0  0
   -3.2761    1.6167   -2.4376 H   0  0  0  0  0  0  0  0  0  0  0  0
   -4.9003    0.8666   -2.4253 H   0  0  0  0  0  0  0  0  0  0  0  0
   -2.9335   -1.6779    2.0153 H   0  0  0  0  0  0  0  0  0  0  0  0
   -4.4471   -1.1282    1.2308 H   0  0  0  0  0  0  0  0  0  0  0  0
   -4.0730   -0.6309    2.9121 H   0  0  0  0  0  0  0  0  0  0  0  0
  1  2  1  0  0  0  0
  2  3  1  0  0  0  0
  3  4  1  0  0  0  0
  4  5  2  0  0  0  0
  4  6  1  0  0  0  0
  6  7  1  0  0  0  0
  7  8  1  0  0  0  0
  7  9  1  0  0  0  0
  9 10  2  0  0  0  0
  9 11  4  0  0  0  0
 11 12  1  0  0  0  0
 12 13  1  0  0  0  0
  7 14  1  0  0  0  0
 14 15  1  0  0  0  0
 15 16  2  0  0  0  0
 15 17  1  0  0  0  0
 17 18  1  0  0  0  0
 15 19  2  0  0  0  0
 19 20  1  0  0  0  0
  1 21  1  0  0  0  0
  1 22  1  0  0  0  0
  1 23  1  0  0  0  0
  2 24  1  0  0  0  0
  2 25  1  0  0  0  0
  6 26  1  0  0  0  0
  6 27  1  0  0  0  0
 12 28  1  0  0  0  0
 12 29  1  0  0  0  0
 13 30  1  0  0  0  0
 13 31  1  0  0  0  0
 13 32  1  0  0  0  0
 18 33  1  0  0  0  0
 18 34  1  0  0  0  0
 18 35  1  0  0  0  0
 20 36  1  0  0  0  0
 20 37  1  0  0  0  0
 20 38  1  0  0  0  0
M  END
