 xtb: 6.7.1 (edcfbbe)
          04032520243D

 21 21  0     0  0            999 V2000
   -2.4928    0.8000   -0.0049 C   0  0  0  0  0  0  0  0  0  0  0  0
   -1.2012    0.0381   -0.0001 C   0  0  0  0  0  0  0  0  0  0  0  0
   -1.2315   -1.3473   -0.0012 C   0  0  0  0  0  0  0  0  0  0  0  0
   -0.0565   -2.0770    0.0021 C   0  0  0  0  0  0  0  0  0  0  0  0
    1.1506   -1.4110    0.0027 C   0  0  0  0  0  0  0  0  0  0  0  0
    1.2133   -0.0191    0.0024 C   0  0  0  0  0  0  0  0  0  0  0  0
    0.0270    0.7167    0.0049 C   0  0  0  0  0  0  0  0  0  0  0  0
   -0.0098    2.2180    0.0055 C   0  0  0  0  0  0  0  0  0  0  0  0
    2.5924    0.5811   -0.0081 C   0  0  0  0  0  0  0  0  0  0  0  0
   -2.5866    1.4057    0.8956 H   0  0  0  0  0  0  0  0  0  0  0  0
   -2.5445    1.4690   -0.8623 H   0  0  0  0  0  0  0  0  0  0  0  0
   -3.3365    0.1162   -0.0479 H   0  0  0  0  0  0  0  0  0  0  0  0
   -2.1829   -1.8602   -0.0045 H   0  0  0  0  0  0  0  0  0  0  0  0
   -0.0849   -3.1569    0.0026 H   0  0  0  0  0  0  0  0  0  0  0  0
    2.0736   -1.9736    0.0022 H   0  0  0  0  0  0  0  0  0  0  0  0
    0.9753    2.6609    0.0915 H   0  0  0  0  0  0  0  0  0  0  0  0
   -0.4647    2.5797   -0.9161 H   0  0  0  0  0  0  0  0  0  0  0  0
   -0.6145    2.5767    0.8367 H   0  0  0  0  0  0  0  0  0  0  0  0
    3.1564    0.2157    0.8489 H   0  0  0  0  0  0  0  0  0  0  0  0
    3.1179    0.2679   -0.9093 H   0  0  0  0  0  0  0  0  0  0  0  0
    2.5923    1.6642    0.0228 H   0  0  0  0  0  0  0  0  0  0  0  0
  1  2  1  0  0  0  0
  2  3  4  0  0  0  0
  3  4  4  0  0  0  0
  4  5  4  0  0  0  0
  5  6  4  0  0  0  0
  2  7  4  0  0  0  0
  6  7  4  0  0  0  0
  7  8  1  0  0  0  0
  6  9  1  0  0  0  0
  1 10  1  0  0  0  0
  1 11  1  0  0  0  0
  1 12  1  0  0  0  0
  3 13  1  0  0  0  0
  4 14  1  0  0  0  0
  5 15  1  0  0  0  0
  8 16  1  0  0  0  0
  8 17  1  0  0  0  0
  8 18  1  0  0  0  0
  9 19  1  0  0  0  0
  9 20  1  0  0  0  0
  9 21  1  0  0  0  0
M  END
