 xtb: 6.7.1 (edcfbbe)
          04032519403D

  6  5  0     0  0            999 V2000
   -0.7249   -0.0138   -0.0000 C   0  0  0  0  0  0  0  0  0  0  0  0
    0.6848    0.0651   -0.0000 O   0  0  0  0  0  0  0  0  0  0  0  0
   -1.0957   -0.5250   -0.8925 H   0  0  0  0  0  0  0  0  0  0  0  0
   -1.0924    1.0106   -0.0001 H   0  0  0  0  0  0  0  0  0  0  0  0
   -1.0959   -0.5247    0.8926 H   0  0  0  0  0  0  0  0  0  0  0  0
    1.0530   -0.8291    0.0001 H   0  0  0  0  0  0  0  0  0  0  0  0
  1  2  1  0  0  0  0
  1  3  1  0  0  0  0
  1  4  1  0  0  0  0
  1  5  1  0  0  0  0
  2  6  1  0  0  0  0
M  END
