 xtb: 6.7.1 (edcfbbe)
          04092505213D

 41 40  0     0  0            999 V2000
    5.3213   -1.0418   -2.1396 C   0  0  0  0  0  0  0  0  0  0  0  0
    4.2231   -0.0287   -1.8896 C   0  0  0  0  0  0  0  0  0  0  0  0
    3.3621   -0.5596   -0.8612 O   0  0  0  0  0  0  0  0  0  0  0  0
    1.9712    0.1584   -0.5052 P   0  0  0  0  0  0  0  0  0  0  0  0
    0.9198    0.6115   -2.0915 S   0  0  0  0  0  0  0  0  0  0  0  0
    2.3648    1.4555    0.3154 O   0  0  0  0  0  0  0  0  0  0  0  0
    3.2853    1.4649    1.4343 C   0  0  0  0  0  0  0  0  0  0  0  0
    2.5726    1.2141    2.7479 C   0  0  0  0  0  0  0  0  0  0  0  0
    1.2679   -1.3458    0.7858 S   0  0  0  0  0  0  0  0  0  0  0  0
   -0.0504   -2.0313   -0.2681 C   0  0  0  0  0  0  0  0  0  0  0  0
   -1.6998   -1.8966    0.4617 S   0  0  0  0  0  0  0  0  0  0  0  0
   -2.0395    0.2056    0.3113 P   0  0  0  0  0  0  0  0  0  0  0  0
   -0.7419    1.4449    1.0946 S   0  0  0  0  0  0  0  0  0  0  0  0
   -3.5289    0.3140    0.8495 O   0  0  0  0  0  0  0  0  0  0  0  0
   -4.0126   -0.2540    2.0832 C   0  0  0  0  0  0  0  0  0  0  0  0
   -3.1421    0.0874    3.2735 C   0  0  0  0  0  0  0  0  0  0  0  0
   -2.2035    0.5263   -1.2213 O   0  0  0  0  0  0  0  0  0  0  0  0
   -3.1292   -0.1505   -2.1059 C   0  0  0  0  0  0  0  0  0  0  0  0
   -4.3904    0.6693   -2.2846 C   0  0  0  0  0  0  0  0  0  0  0  0
    5.8869   -1.2111   -1.2280 H   0  0  0  0  0  0  0  0  0  0  0  0
    4.8884   -1.9833   -2.4643 H   0  0  0  0  0  0  0  0  0  0  0  0
    5.9840   -0.6643   -2.9113 H   0  0  0  0  0  0  0  0  0  0  0  0
    3.6200    0.1442   -2.7874 H   0  0  0  0  0  0  0  0  0  0  0  0
    4.6273    0.9304   -1.5507 H   0  0  0  0  0  0  0  0  0  0  0  0
    4.0662    0.7196    1.2591 H   0  0  0  0  0  0  0  0  0  0  0  0
    3.7107    2.4697    1.4031 H   0  0  0  0  0  0  0  0  0  0  0  0
    3.2487    1.4386    3.5666 H   0  0  0  0  0  0  0  0  0  0  0  0
    1.6943    1.8520    2.8164 H   0  0  0  0  0  0  0  0  0  0  0  0
    2.2513    0.1778    2.8237 H   0  0  0  0  0  0  0  0  0  0  0  0
    0.1304   -3.0967   -0.3827 H   0  0  0  0  0  0  0  0  0  0  0  0
   -0.0280   -1.5132   -1.2308 H   0  0  0  0  0  0  0  0  0  0  0  0
   -5.0126    0.1712    2.1859 H   0  0  0  0  0  0  0  0  0  0  0  0
   -4.0792   -1.3372    1.9509 H   0  0  0  0  0  0  0  0  0  0  0  0
   -3.0258    1.1651    3.3625 H   0  0  0  0  0  0  0  0  0  0  0  0
   -3.5988   -0.3029    4.1772 H   0  0  0  0  0  0  0  0  0  0  0  0
   -2.1534   -0.3545    3.1553 H   0  0  0  0  0  0  0  0  0  0  0  0
   -2.5807   -0.2501   -3.0452 H   0  0  0  0  0  0  0  0  0  0  0  0
   -3.3541   -1.1402   -1.6980 H   0  0  0  0  0  0  0  0  0  0  0  0
   -4.9079    0.7756   -1.3349 H   0  0  0  0  0  0  0  0  0  0  0  0
   -4.1395    1.6582   -2.6585 H   0  0  0  0  0  0  0  0  0  0  0  0
   -5.0400    0.1698   -2.9966 H   0  0  0  0  0  0  0  0  0  0  0  0
  1  2  1  0  0  0  0
  2  3  1  0  0  0  0
  3  4  1  0  0  0  0
  4  5  2  0  0  0  0
  4  6  2  0  0  0  0
  6  7  1  0  0  0  0
  7  8  1  0  0  0  0
  4  9  1  0  0  0  0
  9 10  1  0  0  0  0
 10 11  1  0  0  0  0
 11 12  1  0  0  0  0
 12 13  2  0  0  0  0
 12 14  2  0  0  0  0
 14 15  1  0  0  0  0
 15 16  1  0  0  0  0
 12 17  2  0  0  0  0
 17 18  1  0  0  0  0
 18 19  1  0  0  0  0
  1 20  1  0  0  0  0
  1 21  1  0  0  0  0
  1 22  1  0  0  0  0
  2 23  1  0  0  0  0
  2 24  1  0  0  0  0
  7 25  1  0  0  0  0
  7 26  1  0  0  0  0
  8 27  1  0  0  0  0
  8 28  1  0  0  0  0
  8 29  1  0  0  0  0
 10 30  1  0  0  0  0
 10 31  1  0  0  0  0
 15 32  1  0  0  0  0
 15 33  1  0  0  0  0
 16 34  1  0  0  0  0
 16 35  1  0  0  0  0
 16 36  1  0  0  0  0
 18 37  1  0  0  0  0
 18 38  1  0  0  0  0
 19 39  1  0  0  0  0
 19 40  1  0  0  0  0
 19 41  1  0  0  0  0
M  END
