 xtb: 6.7.1 (edcfbbe)
          04092505213D

 41 40  0     0  0            999 V2000
    1.8852   -0.8320   -2.6637 C   0  0  0  0  0  0  0  0  0  0  0  0
    2.9672    0.1237   -2.2096 C   0  0  0  0  0  0  0  0  0  0  0  0
    2.7104    0.6769   -0.8960 O   0  0  0  0  0  0  0  0  0  0  0  0
    2.6082   -0.1394    0.4518 P   0  0  0  0  0  0  0  0  0  0  0  0
    3.0882    0.9802    1.9857 S   0  0  0  0  0  0  0  0  0  0  0  0
    3.5368   -1.3973    0.1782 O   0  0  0  0  0  0  0  0  0  0  0  0
    4.0804   -2.1985    1.2450 C   0  0  0  0  0  0  0  0  0  0  0  0
    3.0068   -2.9544    1.9997 C   0  0  0  0  0  0  0  0  0  0  0  0
    0.6311   -0.9127    0.5433 S   0  0  0  0  0  0  0  0  0  0  0  0
   -0.1158    0.6494    1.1172 C   0  0  0  0  0  0  0  0  0  0  0  0
   -1.8699    0.4562    1.4572 S   0  0  0  0  0  0  0  0  0  0  0  0
   -2.5833    0.5241   -0.5601 P   0  0  0  0  0  0  0  0  0  0  0  0
   -1.2984    1.2109   -1.8814 S   0  0  0  0  0  0  0  0  0  0  0  0
   -3.9838    1.2444   -0.4511 O   0  0  0  0  0  0  0  0  0  0  0  0
   -4.2520    2.4359    0.3094 C   0  0  0  0  0  0  0  0  0  0  0  0
   -3.3592    3.5942   -0.0881 C   0  0  0  0  0  0  0  0  0  0  0  0
   -3.1829   -0.8926   -0.9215 O   0  0  0  0  0  0  0  0  0  0  0  0
   -2.4113   -1.9862   -1.4503 C   0  0  0  0  0  0  0  0  0  0  0  0
   -2.1355   -3.0118   -0.3683 C   0  0  0  0  0  0  0  0  0  0  0  0
    0.9160   -0.3375   -2.6436 H   0  0  0  0  0  0  0  0  0  0  0  0
    2.0976   -1.1482   -3.6800 H   0  0  0  0  0  0  0  0  0  0  0  0
    1.8553   -1.7065   -2.0168 H   0  0  0  0  0  0  0  0  0  0  0  0
    3.0104    1.0088   -2.8462 H   0  0  0  0  0  0  0  0  0  0  0  0
    3.9410   -0.3692   -2.1846 H   0  0  0  0  0  0  0  0  0  0  0  0
    4.7675   -2.8746    0.7341 H   0  0  0  0  0  0  0  0  0  0  0  0
    4.6360   -1.5412    1.9207 H   0  0  0  0  0  0  0  0  0  0  0  0
    3.4765   -3.6337    2.7037 H   0  0  0  0  0  0  0  0  0  0  0  0
    2.3776   -2.2572    2.5508 H   0  0  0  0  0  0  0  0  0  0  0  0
    2.3848   -3.5205    1.3111 H   0  0  0  0  0  0  0  0  0  0  0  0
    0.0215    1.4012    0.3362 H   0  0  0  0  0  0  0  0  0  0  0  0
    0.3668    0.9520    2.0460 H   0  0  0  0  0  0  0  0  0  0  0  0
   -5.2997    2.6484    0.0897 H   0  0  0  0  0  0  0  0  0  0  0  0
   -4.1367    2.2023    1.3714 H   0  0  0  0  0  0  0  0  0  0  0  0
   -3.4233    3.7716   -1.1593 H   0  0  0  0  0  0  0  0  0  0  0  0
   -3.6681    4.4888    0.4430 H   0  0  0  0  0  0  0  0  0  0  0  0
   -2.3217    3.3755    0.1638 H   0  0  0  0  0  0  0  0  0  0  0  0
   -3.0307   -2.4069   -2.2449 H   0  0  0  0  0  0  0  0  0  0  0  0
   -1.4818   -1.6001   -1.8825 H   0  0  0  0  0  0  0  0  0  0  0  0
   -3.0702   -3.3317    0.0830 H   0  0  0  0  0  0  0  0  0  0  0  0
   -1.6357   -3.8677   -0.8093 H   0  0  0  0  0  0  0  0  0  0  0  0
   -1.4956   -2.5892    0.4036 H   0  0  0  0  0  0  0  0  0  0  0  0
  1  2  1  0  0  0  0
  2  3  1  0  0  0  0
  3  4  2  0  0  0  0
  4  5  2  0  0  0  0
  4  6  2  0  0  0  0
  6  7  1  0  0  0  0
  7  8  1  0  0  0  0
  4  9  1  0  0  0  0
  9 10  1  0  0  0  0
 10 11  1  0  0  0  0
 11 12  1  0  0  0  0
 12 13  2  0  0  0  0
 12 14  2  0  0  0  0
 14 15  1  0  0  0  0
 15 16  1  0  0  0  0
 12 17  2  0  0  0  0
 17 18  1  0  0  0  0
 18 19  1  0  0  0  0
  1 20  1  0  0  0  0
  1 21  1  0  0  0  0
  1 22  1  0  0  0  0
  2 23  1  0  0  0  0
  2 24  1  0  0  0  0
  7 25  1  0  0  0  0
  7 26  1  0  0  0  0
  8 27  1  0  0  0  0
  8 28  1  0  0  0  0
  8 29  1  0  0  0  0
 10 30  1  0  0  0  0
 10 31  1  0  0  0  0
 15 32  1  0  0  0  0
 15 33  1  0  0  0  0
 16 34  1  0  0  0  0
 16 35  1  0  0  0  0
 16 36  1  0  0  0  0
 18 37  1  0  0  0  0
 18 38  1  0  0  0  0
 19 39  1  0  0  0  0
 19 40  1  0  0  0  0
 19 41  1  0  0  0  0
M  END
