 xtb: 6.7.1 (edcfbbe)
          04092505213D

 41 40  0     0  0            999 V2000
    3.9050   -2.0076   -2.1678 C   0  0  0  0  0  0  0  0  0  0  0  0
    4.0129   -0.4995   -2.0705 C   0  0  0  0  0  0  0  0  0  0  0  0
    3.4569    0.0118   -0.8457 O   0  0  0  0  0  0  0  0  0  0  0  0
    1.9050   -0.0485   -0.5189 P   0  0  0  0  0  0  0  0  0  0  0  0
    0.7428    0.3006   -2.0533 S   0  0  0  0  0  0  0  0  0  0  0  0
    1.7367    1.0325    0.6155 O   0  0  0  0  0  0  0  0  0  0  0  0
    2.1834    0.9387    1.9901 C   0  0  0  0  0  0  0  0  0  0  0  0
    3.6634    0.6526    2.1122 C   0  0  0  0  0  0  0  0  0  0  0  0
    1.6086   -1.9324    0.4113 S   0  0  0  0  0  0  0  0  0  0  0  0
   -0.1946   -1.9351    0.3036 C   0  0  0  0  0  0  0  0  0  0  0  0
   -0.9923   -0.8535    1.5463 S   0  0  0  0  0  0  0  0  0  0  0  0
   -1.9114    0.6983    0.4538 P   0  0  0  0  0  0  0  0  0  0  0  0
   -1.0848    2.4432    0.1450 S   0  0  0  0  0  0  0  0  0  0  0  0
   -3.2246    0.9735    1.3077 O   0  0  0  0  0  0  0  0  0  0  0  0
   -4.1605   -0.0603    1.6996 C   0  0  0  0  0  0  0  0  0  0  0  0
   -4.0597   -0.3241    3.1888 C   0  0  0  0  0  0  0  0  0  0  0  0
   -2.3676   -0.1394   -0.8287 O   0  0  0  0  0  0  0  0  0  0  0  0
   -2.7945    0.5056   -2.0466 C   0  0  0  0  0  0  0  0  0  0  0  0
   -2.7009   -0.5080   -3.1674 C   0  0  0  0  0  0  0  0  0  0  0  0
    4.4593   -2.3479   -3.0366 H   0  0  0  0  0  0  0  0  0  0  0  0
    4.3105   -2.4757   -1.2746 H   0  0  0  0  0  0  0  0  0  0  0  0
    2.8626   -2.3008   -2.2784 H   0  0  0  0  0  0  0  0  0  0  0  0
    3.4981   -0.0215   -2.9100 H   0  0  0  0  0  0  0  0  0  0  0  0
    5.0524   -0.1700   -2.0382 H   0  0  0  0  0  0  0  0  0  0  0  0
    1.9201    1.9169    2.3970 H   0  0  0  0  0  0  0  0  0  0  0  0
    1.5916    0.1655    2.4902 H   0  0  0  0  0  0  0  0  0  0  0  0
    4.2356    1.3826    1.5456 H   0  0  0  0  0  0  0  0  0  0  0  0
    3.9449    0.7080    3.1593 H   0  0  0  0  0  0  0  0  0  0  0  0
    3.8883   -0.3433    1.7357 H   0  0  0  0  0  0  0  0  0  0  0  0
   -0.5170   -2.9495    0.5210 H   0  0  0  0  0  0  0  0  0  0  0  0
   -0.5007   -1.6159   -0.6928 H   0  0  0  0  0  0  0  0  0  0  0  0
   -5.1425    0.3370    1.4360 H   0  0  0  0  0  0  0  0  0  0  0  0
   -3.9621   -0.9650    1.1190 H   0  0  0  0  0  0  0  0  0  0  0  0
   -3.0792   -0.7228    3.4389 H   0  0  0  0  0  0  0  0  0  0  0  0
   -4.2117    0.6007    3.7382 H   0  0  0  0  0  0  0  0  0  0  0  0
   -4.8219   -1.0419    3.4743 H   0  0  0  0  0  0  0  0  0  0  0  0
   -3.8191    0.8580   -1.9011 H   0  0  0  0  0  0  0  0  0  0  0  0
   -2.1444    1.3673   -2.2315 H   0  0  0  0  0  0  0  0  0  0  0  0
   -1.6621   -0.7882   -3.3239 H   0  0  0  0  0  0  0  0  0  0  0  0
   -3.2811   -1.3923   -2.9207 H   0  0  0  0  0  0  0  0  0  0  0  0
   -3.0873   -0.0624   -4.0779 H   0  0  0  0  0  0  0  0  0  0  0  0
  1  2  1  0  0  0  0
  2  3  1  0  0  0  0
  3  4  2  0  0  0  0
  4  5  2  0  0  0  0
  4  6  2  0  0  0  0
  6  7  1  0  0  0  0
  7  8  1  0  0  0  0
  4  9  1  0  0  0  0
  9 10  1  0  0  0  0
 10 11  1  0  0  0  0
 11 12  1  0  0  0  0
 12 13  2  0  0  0  0
 12 14  2  0  0  0  0
 14 15  1  0  0  0  0
 15 16  1  0  0  0  0
 12 17  1  0  0  0  0
 17 18  1  0  0  0  0
 18 19  1  0  0  0  0
  1 20  1  0  0  0  0
  1 21  1  0  0  0  0
  1 22  1  0  0  0  0
  2 23  1  0  0  0  0
  2 24  1  0  0  0  0
  7 25  1  0  0  0  0
  7 26  1  0  0  0  0
  8 27  1  0  0  0  0
  8 28  1  0  0  0  0
  8 29  1  0  0  0  0
 10 30  1  0  0  0  0
 10 31  1  0  0  0  0
 15 32  1  0  0  0  0
 15 33  1  0  0  0  0
 16 34  1  0  0  0  0
 16 35  1  0  0  0  0
 16 36  1  0  0  0  0
 18 37  1  0  0  0  0
 18 38  1  0  0  0  0
 19 39  1  0  0  0  0
 19 40  1  0  0  0  0
 19 41  1  0  0  0  0
M  END
