 xtb: 6.7.1 (edcfbbe)
          04092507313D

 38 37  0     0  0            999 V2000
    5.0171   -0.6392    0.5206 C   0  0  0  0  0  0  0  0  0  0  0  0
    4.5455   -1.7292   -0.4282 C   0  0  0  0  0  0  0  0  0  0  0  0
    3.1083   -1.8313   -0.4130 O   0  0  0  0  0  0  0  0  0  0  0  0
    2.4165   -1.0597   -1.2238 C   0  0  0  0  0  0  0  0  0  0  0  0
    2.8979   -0.2862   -2.0229 O   0  0  0  0  0  0  0  0  0  0  0  0
    0.9244   -1.2880   -1.0625 C   0  0  0  0  0  0  0  0  0  0  0  0
    0.1881    0.0230   -1.2973 C   0  0  0  0  0  0  0  0  0  0  0  0
    0.5446    0.4674   -2.2348 H   0  0  0  0  0  0  0  0  0  0  0  0
    0.4143    1.0518   -0.2062 C   0  0  0  0  0  0  0  0  0  0  0  0
   -0.4050    1.9112    0.0538 O   0  0  0  0  0  0  0  0  0  0  0  0
    1.5815    0.9198    0.3665 O   0  0  0  0  0  0  0  0  0  0  0  0
    1.9357    1.8524    1.4083 C   0  0  0  0  0  0  0  0  0  0  0  0
    2.4955    3.1393    0.8265 C   0  0  0  0  0  0  0  0  0  0  0  0
   -1.6043   -0.1841   -1.5228 S   0  0  0  0  0  0  0  0  0  0  0  0
   -2.2664   -0.0923    0.4954 P   0  0  0  0  0  0  0  0  0  0  0  0
   -1.0187   -0.6557    1.8942 S   0  0  0  0  0  0  0  0  0  0  0  0
   -2.9472    1.2966    0.8033 O   0  0  0  0  0  0  0  0  0  0  0  0
   -3.8333    1.9565   -0.1216 C   0  0  0  0  0  0  0  0  0  0  0  0
   -3.5773   -1.0112    0.4058 O   0  0  0  0  0  0  0  0  0  0  0  0
   -3.4850   -2.4265    0.2091 C   0  0  0  0  0  0  0  0  0  0  0  0
    4.6485   -0.8345    1.5239 H   0  0  0  0  0  0  0  0  0  0  0  0
    6.1017   -0.6159    0.5337 H   0  0  0  0  0  0  0  0  0  0  0  0
    4.6444    0.3266    0.1878 H   0  0  0  0  0  0  0  0  0  0  0  0
    4.8933   -2.7123   -0.1108 H   0  0  0  0  0  0  0  0  0  0  0  0
    4.8696   -1.5196   -1.4516 H   0  0  0  0  0  0  0  0  0  0  0  0
    0.7286   -1.6903   -0.0678 H   0  0  0  0  0  0  0  0  0  0  0  0
    0.6082   -2.0155   -1.8129 H   0  0  0  0  0  0  0  0  0  0  0  0
    1.0436    2.0463    2.0113 H   0  0  0  0  0  0  0  0  0  0  0  0
    2.6795    1.3189    2.0000 H   0  0  0  0  0  0  0  0  0  0  0  0
    2.8396    3.7755    1.6349 H   0  0  0  0  0  0  0  0  0  0  0  0
    3.3273    2.9191    0.1621 H   0  0  0  0  0  0  0  0  0  0  0  0
    1.7254    3.6640    0.2657 H   0  0  0  0  0  0  0  0  0  0  0  0
   -4.6103    1.2701   -0.4533 H   0  0  0  0  0  0  0  0  0  0  0  0
   -3.2593    2.3247   -0.9716 H   0  0  0  0  0  0  0  0  0  0  0  0
   -4.2586    2.7849    0.4388 H   0  0  0  0  0  0  0  0  0  0  0  0
   -3.1898   -2.6386   -0.8181 H   0  0  0  0  0  0  0  0  0  0  0  0
   -4.4800   -2.8146    0.4112 H   0  0  0  0  0  0  0  0  0  0  0  0
   -2.7610   -2.8542    0.9043 H   0  0  0  0  0  0  0  0  0  0  0  0
  1  2  1  0  0  0  0
  2  3  1  0  0  0  0
  3  4  1  0  0  0  0
  4  5  2  0  0  0  0
  4  6  1  0  0  0  0
  6  7  1  0  0  0  0
  7  8  1  0  0  0  0
  7  9  1  0  0  0  0
  9 10  2  0  0  0  0
  9 11  4  0  0  0  0
 11 12  1  0  0  0  0
 12 13  1  0  0  0  0
  7 14  1  0  0  0  0
 14 15  1  0  0  0  0
 15 16  2  0  0  0  0
 15 17  2  0  0  0  0
 17 18  1  0  0  0  0
 15 19  1  0  0  0  0
 19 20  1  0  0  0  0
  1 21  1  0  0  0  0
  1 22  1  0  0  0  0
  1 23  1  0  0  0  0
  2 24  1  0  0  0  0
  2 25  1  0  0  0  0
  6 26  1  0  0  0  0
  6 27  1  0  0  0  0
 12 28  1  0  0  0  0
 12 29  1  0  0  0  0
 13 30  1  0  0  0  0
 13 31  1  0  0  0  0
 13 32  1  0  0  0  0
 18 33  1  0  0  0  0
 18 34  1  0  0  0  0
 18 35  1  0  0  0  0
 20 36  1  0  0  0  0
 20 37  1  0  0  0  0
 20 38  1  0  0  0  0
M  END
