 xtb: 6.7.1 (edcfbbe)
          04092505203D

 41 40  0     0  0            999 V2000
    3.0005    0.7407   -2.3750 C   0  0  0  0  0  0  0  0  0  0  0  0
    2.1521   -0.5124   -2.3456 C   0  0  0  0  0  0  0  0  0  0  0  0
    1.3381   -0.5991   -1.1561 O   0  0  0  0  0  0  0  0  0  0  0  0
    1.8866   -0.5530    0.3245 P   0  0  0  0  0  0  0  0  0  0  0  0
    2.4639    1.1410    1.1381 S   0  0  0  0  0  0  0  0  0  0  0  0
    3.0105   -1.6781    0.2570 O   0  0  0  0  0  0  0  0  0  0  0  0
    3.9241   -1.9164    1.3472 C   0  0  0  0  0  0  0  0  0  0  0  0
    5.2650   -1.2671    1.0659 C   0  0  0  0  0  0  0  0  0  0  0  0
    0.3282   -1.5101    1.3722 S   0  0  0  0  0  0  0  0  0  0  0  0
   -0.4950   -0.0768    2.1431 C   0  0  0  0  0  0  0  0  0  0  0  0
   -2.2130    0.1039    1.6284 S   0  0  0  0  0  0  0  0  0  0  0  0
   -1.8721    0.6369   -0.4068 P   0  0  0  0  0  0  0  0  0  0  0  0
   -0.4957    1.9854   -0.7421 S   0  0  0  0  0  0  0  0  0  0  0  0
   -3.3441    0.9446   -0.9195 O   0  0  0  0  0  0  0  0  0  0  0  0
   -4.2920    1.8058   -0.2601 C   0  0  0  0  0  0  0  0  0  0  0  0
   -3.7421    3.1903    0.0099 C   0  0  0  0  0  0  0  0  0  0  0  0
   -1.5273   -0.6904   -1.1829 O   0  0  0  0  0  0  0  0  0  0  0  0
   -2.3596   -1.8774   -1.1556 C   0  0  0  0  0  0  0  0  0  0  0  0
   -3.2034   -1.9636   -2.4105 C   0  0  0  0  0  0  0  0  0  0  0  0
    3.5150    0.8098   -3.3281 H   0  0  0  0  0  0  0  0  0  0  0  0
    2.3724    1.6198   -2.2385 H   0  0  0  0  0  0  0  0  0  0  0  0
    3.7360    0.7158   -1.5716 H   0  0  0  0  0  0  0  0  0  0  0  0
    2.7712   -1.4111   -2.3977 H   0  0  0  0  0  0  0  0  0  0  0  0
    1.4162   -0.5139   -3.1519 H   0  0  0  0  0  0  0  0  0  0  0  0
    3.4920   -1.5268    2.2728 H   0  0  0  0  0  0  0  0  0  0  0  0
    4.0088   -3.0026    1.4100 H   0  0  0  0  0  0  0  0  0  0  0  0
    5.9577   -1.5196    1.8619 H   0  0  0  0  0  0  0  0  0  0  0  0
    5.6616   -1.6192    0.1177 H   0  0  0  0  0  0  0  0  0  0  0  0
    5.1532   -0.1856    1.0249 H   0  0  0  0  0  0  0  0  0  0  0  0
    0.0717    0.8253    1.8918 H   0  0  0  0  0  0  0  0  0  0  0  0
   -0.5185   -0.2381    3.2177 H   0  0  0  0  0  0  0  0  0  0  0  0
   -5.1327    1.8408   -0.9552 H   0  0  0  0  0  0  0  0  0  0  0  0
   -4.5979    1.3230    0.6720 H   0  0  0  0  0  0  0  0  0  0  0  0
   -3.3781    3.6411   -0.9105 H   0  0  0  0  0  0  0  0  0  0  0  0
   -4.5242    3.8131    0.4319 H   0  0  0  0  0  0  0  0  0  0  0  0
   -2.9130    3.1358    0.7142 H   0  0  0  0  0  0  0  0  0  0  0  0
   -1.6524   -2.7067   -1.0873 H   0  0  0  0  0  0  0  0  0  0  0  0
   -2.9841   -1.8552   -0.2578 H   0  0  0  0  0  0  0  0  0  0  0  0
   -2.5660   -1.9618   -3.2903 H   0  0  0  0  0  0  0  0  0  0  0  0
   -3.7801   -2.8829   -2.3865 H   0  0  0  0  0  0  0  0  0  0  0  0
   -3.8796   -1.1148   -2.4674 H   0  0  0  0  0  0  0  0  0  0  0  0
  1  2  1  0  0  0  0
  2  3  1  0  0  0  0
  3  4  2  0  0  0  0
  4  5  2  0  0  0  0
  4  6  2  0  0  0  0
  6  7  1  0  0  0  0
  7  8  1  0  0  0  0
  4  9  1  0  0  0  0
  9 10  1  0  0  0  0
 10 11  1  0  0  0  0
 11 12  1  0  0  0  0
 12 13  2  0  0  0  0
 12 14  2  0  0  0  0
 14 15  1  0  0  0  0
 15 16  1  0  0  0  0
 12 17  2  0  0  0  0
 17 18  1  0  0  0  0
 18 19  1  0  0  0  0
  1 20  1  0  0  0  0
  1 21  1  0  0  0  0
  1 22  1  0  0  0  0
  2 23  1  0  0  0  0
  2 24  1  0  0  0  0
  7 25  1  0  0  0  0
  7 26  1  0  0  0  0
  8 27  1  0  0  0  0
  8 28  1  0  0  0  0
  8 29  1  0  0  0  0
 10 30  1  0  0  0  0
 10 31  1  0  0  0  0
 15 32  1  0  0  0  0
 15 33  1  0  0  0  0
 16 34  1  0  0  0  0
 16 35  1  0  0  0  0
 16 36  1  0  0  0  0
 18 37  1  0  0  0  0
 18 38  1  0  0  0  0
 19 39  1  0  0  0  0
 19 40  1  0  0  0  0
 19 41  1  0  0  0  0
M  END
