 xtb: 6.7.1 (edcfbbe)
          04092505213D

 41 40  0     0  0            999 V2000
    1.9825    1.9775   -2.2803 C   0  0  0  0  0  0  0  0  0  0  0  0
    2.1032    0.5290   -1.8563 C   0  0  0  0  0  0  0  0  0  0  0  0
    1.3537    0.3059   -0.6403 O   0  0  0  0  0  0  0  0  0  0  0  0
    2.0964    0.1858    0.7522 P   0  0  0  0  0  0  0  0  0  0  0  0
    3.4576    1.5286    1.1680 S   0  0  0  0  0  0  0  0  0  0  0  0
    2.6265   -1.3225    0.6835 O   0  0  0  0  0  0  0  0  0  0  0  0
    3.6471   -1.8182    1.5732 C   0  0  0  0  0  0  0  0  0  0  0  0
    4.9950   -1.8197    0.8795 C   0  0  0  0  0  0  0  0  0  0  0  0
    0.4600    0.1347    2.0545 S   0  0  0  0  0  0  0  0  0  0  0  0
   -0.4681   -1.3052    1.3859 C   0  0  0  0  0  0  0  0  0  0  0  0
   -2.1965   -0.9042    1.0999 S   0  0  0  0  0  0  0  0  0  0  0  0
   -1.9784   -0.0830   -0.8588 P   0  0  0  0  0  0  0  0  0  0  0  0
   -0.9574   -1.2272   -2.0781 S   0  0  0  0  0  0  0  0  0  0  0  0
   -1.3108    1.3449   -0.7702 O   0  0  0  0  0  0  0  0  0  0  0  0
   -1.9538    2.5686   -0.3398 C   0  0  0  0  0  0  0  0  0  0  0  0
   -2.4072    2.5272    1.1047 C   0  0  0  0  0  0  0  0  0  0  0  0
   -3.4682    0.2851   -1.2645 O   0  0  0  0  0  0  0  0  0  0  0  0
   -4.6054   -0.5857   -1.1141 C   0  0  0  0  0  0  0  0  0  0  0  0
   -4.4284   -1.9127   -1.8211 C   0  0  0  0  0  0  0  0  0  0  0  0
    0.9334    2.2362   -2.3995 H   0  0  0  0  0  0  0  0  0  0  0  0
    2.4258    2.6260   -1.5271 H   0  0  0  0  0  0  0  0  0  0  0  0
    2.4989    2.1187   -3.2243 H   0  0  0  0  0  0  0  0  0  0  0  0
    3.1470    0.2490   -1.6904 H   0  0  0  0  0  0  0  0  0  0  0  0
    1.6532   -0.1446   -2.5888 H   0  0  0  0  0  0  0  0  0  0  0  0
    3.6752   -1.1965    2.4727 H   0  0  0  0  0  0  0  0  0  0  0  0
    3.3302   -2.8300    1.8320 H   0  0  0  0  0  0  0  0  0  0  0  0
    4.9393   -2.3901   -0.0437 H   0  0  0  0  0  0  0  0  0  0  0  0
    5.2970   -0.8000    0.6493 H   0  0  0  0  0  0  0  0  0  0  0  0
    5.7343   -2.2670    1.5359 H   0  0  0  0  0  0  0  0  0  0  0  0
   -0.4476   -2.0902    2.1367 H   0  0  0  0  0  0  0  0  0  0  0  0
   -0.0090   -1.6242    0.4491 H   0  0  0  0  0  0  0  0  0  0  0  0
   -1.1773    3.3215   -0.4888 H   0  0  0  0  0  0  0  0  0  0  0  0
   -2.7936    2.7632   -1.0094 H   0  0  0  0  0  0  0  0  0  0  0  0
   -3.2149    1.8104    1.2351 H   0  0  0  0  0  0  0  0  0  0  0  0
   -1.5812    2.2510    1.7573 H   0  0  0  0  0  0  0  0  0  0  0  0
   -2.7635    3.5133    1.3866 H   0  0  0  0  0  0  0  0  0  0  0  0
   -4.7791   -0.7387   -0.0455 H   0  0  0  0  0  0  0  0  0  0  0  0
   -5.4257   -0.0098   -1.5463 H   0  0  0  0  0  0  0  0  0  0  0  0
   -3.6183   -2.4781   -1.3634 H   0  0  0  0  0  0  0  0  0  0  0  0
   -5.3469   -2.4855   -1.7448 H   0  0  0  0  0  0  0  0  0  0  0  0
   -4.1874   -1.7559   -2.8698 H   0  0  0  0  0  0  0  0  0  0  0  0
  1  2  1  0  0  0  0
  2  3  1  0  0  0  0
  3  4  2  0  0  0  0
  4  5  2  0  0  0  0
  4  6  1  0  0  0  0
  6  7  1  0  0  0  0
  7  8  1  0  0  0  0
  4  9  1  0  0  0  0
  9 10  1  0  0  0  0
 10 11  1  0  0  0  0
 11 12  1  0  0  0  0
 12 13  2  0  0  0  0
 12 14  2  0  0  0  0
 14 15  1  0  0  0  0
 15 16  1  0  0  0  0
 12 17  2  0  0  0  0
 17 18  1  0  0  0  0
 18 19  1  0  0  0  0
  1 20  1  0  0  0  0
  1 21  1  0  0  0  0
  1 22  1  0  0  0  0
  2 23  1  0  0  0  0
  2 24  1  0  0  0  0
  7 25  1  0  0  0  0
  7 26  1  0  0  0  0
  8 27  1  0  0  0  0
  8 28  1  0  0  0  0
  8 29  1  0  0  0  0
 10 30  1  0  0  0  0
 10 31  1  0  0  0  0
 15 32  1  0  0  0  0
 15 33  1  0  0  0  0
 16 34  1  0  0  0  0
 16 35  1  0  0  0  0
 16 36  1  0  0  0  0
 18 37  1  0  0  0  0
 18 38  1  0  0  0  0
 19 39  1  0  0  0  0
 19 40  1  0  0  0  0
 19 41  1  0  0  0  0
M  END
