 xtb: 6.7.1 (edcfbbe)
          04092507313D

 38 37  0     0  0            999 V2000
    5.3755   -1.8255   -1.5320 C   0  0  0  0  0  0  0  0  0  0  0  0
    4.5757   -0.5395   -1.3960 C   0  0  0  0  0  0  0  0  0  0  0  0
    3.1605   -0.8066   -1.4216 O   0  0  0  0  0  0  0  0  0  0  0  0
    2.5586   -1.1040   -0.2865 C   0  0  0  0  0  0  0  0  0  0  0  0
    3.1078   -1.1706    0.7886 O   0  0  0  0  0  0  0  0  0  0  0  0
    1.0753   -1.3594   -0.4989 C   0  0  0  0  0  0  0  0  0  0  0  0
    0.4149   -0.1604   -1.1833 C   0  0  0  0  0  0  0  0  0  0  0  0
    0.8912    0.0236   -2.1496 H   0  0  0  0  0  0  0  0  0  0  0  0
    0.5204    1.0770   -0.3152 C   0  0  0  0  0  0  0  0  0  0  0  0
   -0.4617    1.6440    0.1247 O   0  0  0  0  0  0  0  0  0  0  0  0
    1.7557    1.4347   -0.1083 O   0  0  0  0  0  0  0  0  0  0  0  0
    2.0158    2.4979    0.8376 C   0  0  0  0  0  0  0  0  0  0  0  0
    2.0479    1.9424    2.2516 C   0  0  0  0  0  0  0  0  0  0  0  0
   -1.3464   -0.4527   -1.5369 S   0  0  0  0  0  0  0  0  0  0  0  0
   -2.2367   -0.0793    0.3441 P   0  0  0  0  0  0  0  0  0  0  0  0
   -1.3994   -0.3773    2.0908 S   0  0  0  0  0  0  0  0  0  0  0  0
   -3.0948    1.2683    0.3297 O   0  0  0  0  0  0  0  0  0  0  0  0
   -3.7629    1.7210   -0.8597 C   0  0  0  0  0  0  0  0  0  0  0  0
   -3.3534   -1.2208    0.0392 O   0  0  0  0  0  0  0  0  0  0  0  0
   -4.3463   -1.5383    1.0147 C   0  0  0  0  0  0  0  0  0  0  0  0
    5.0877   -2.3517   -2.4379 H   0  0  0  0  0  0  0  0  0  0  0  0
    6.4331   -1.5876   -1.5767 H   0  0  0  0  0  0  0  0  0  0  0  0
    5.1952   -2.4700   -0.6747 H   0  0  0  0  0  0  0  0  0  0  0  0
    4.7431    0.1244   -2.2440 H   0  0  0  0  0  0  0  0  0  0  0  0
    4.8165   -0.0312   -0.4584 H   0  0  0  0  0  0  0  0  0  0  0  0
    0.6161   -1.5556    0.4730 H   0  0  0  0  0  0  0  0  0  0  0  0
    0.9566   -2.2354   -1.1380 H   0  0  0  0  0  0  0  0  0  0  0  0
    2.9867    2.8912    0.5377 H   0  0  0  0  0  0  0  0  0  0  0  0
    1.2386    3.2589    0.7314 H   0  0  0  0  0  0  0  0  0  0  0  0
    1.0649    1.5693    2.5355 H   0  0  0  0  0  0  0  0  0  0  0  0
    2.7556    1.1188    2.3142 H   0  0  0  0  0  0  0  0  0  0  0  0
    2.3408    2.7253    2.9426 H   0  0  0  0  0  0  0  0  0  0  0  0
   -4.5609    2.3743   -0.5151 H   0  0  0  0  0  0  0  0  0  0  0  0
   -4.1666    0.8761   -1.4197 H   0  0  0  0  0  0  0  0  0  0  0  0
   -3.0566    2.2740   -1.4780 H   0  0  0  0  0  0  0  0  0  0  0  0
   -4.9876   -0.6765    1.2060 H   0  0  0  0  0  0  0  0  0  0  0  0
   -3.8687   -1.8464    1.9468 H   0  0  0  0  0  0  0  0  0  0  0  0
   -4.9205   -2.3584    0.5916 H   0  0  0  0  0  0  0  0  0  0  0  0
  1  2  1  0  0  0  0
  2  3  1  0  0  0  0
  3  4  1  0  0  0  0
  4  5  2  0  0  0  0
  4  6  1  0  0  0  0
  6  7  1  0  0  0  0
  7  8  1  0  0  0  0
  7  9  1  0  0  0  0
  9 10  2  0  0  0  0
  9 11  4  0  0  0  0
 11 12  1  0  0  0  0
 12 13  1  0  0  0  0
  7 14  1  0  0  0  0
 14 15  1  0  0  0  0
 15 16  2  0  0  0  0
 15 17  1  0  0  0  0
 17 18  1  0  0  0  0
 15 19  1  0  0  0  0
 19 20  1  0  0  0  0
  1 21  1  0  0  0  0
  1 22  1  0  0  0  0
  1 23  1  0  0  0  0
  2 24  1  0  0  0  0
  2 25  1  0  0  0  0
  6 26  1  0  0  0  0
  6 27  1  0  0  0  0
 12 28  1  0  0  0  0
 12 29  1  0  0  0  0
 13 30  1  0  0  0  0
 13 31  1  0  0  0  0
 13 32  1  0  0  0  0
 18 33  1  0  0  0  0
 18 34  1  0  0  0  0
 18 35  1  0  0  0  0
 20 36  1  0  0  0  0
 20 37  1  0  0  0  0
 20 38  1  0  0  0  0
M  END
