 xtb: 6.7.1 (edcfbbe)
          04092505213D

 41 40  0     0  0            999 V2000
    4.9087    1.0157   -1.0110 C   0  0  0  0  0  0  0  0  0  0  0  0
    4.3245   -0.2767   -1.5430 C   0  0  0  0  0  0  0  0  0  0  0  0
    3.4370   -0.9198   -0.6107 O   0  0  0  0  0  0  0  0  0  0  0  0
    2.2262   -0.2296    0.1516 P   0  0  0  0  0  0  0  0  0  0  0  0
    2.6585    0.8850    1.7100 S   0  0  0  0  0  0  0  0  0  0  0  0
    1.3309   -1.4954    0.4833 O   0  0  0  0  0  0  0  0  0  0  0  0
    1.3593   -2.1354    1.7743 C   0  0  0  0  0  0  0  0  0  0  0  0
    2.6694   -2.8596    1.9994 C   0  0  0  0  0  0  0  0  0  0  0  0
    1.1288    0.6935   -1.3964 S   0  0  0  0  0  0  0  0  0  0  0  0
    0.0948    1.7302   -0.3188 C   0  0  0  0  0  0  0  0  0  0  0  0
   -0.9174    0.8046    0.8584 S   0  0  0  0  0  0  0  0  0  0  0  0
   -2.3815    0.0884   -0.5355 P   0  0  0  0  0  0  0  0  0  0  0  0
   -1.7625   -1.1930   -1.8820 S   0  0  0  0  0  0  0  0  0  0  0  0
   -2.9850    1.3504   -1.2650 O   0  0  0  0  0  0  0  0  0  0  0  0
   -3.9792    2.2626   -0.7328 C   0  0  0  0  0  0  0  0  0  0  0  0
   -3.4143    3.2020    0.3132 C   0  0  0  0  0  0  0  0  0  0  0  0
   -3.5719   -0.3601    0.4152 O   0  0  0  0  0  0  0  0  0  0  0  0
   -3.4233   -1.1984    1.5752 C   0  0  0  0  0  0  0  0  0  0  0  0
   -2.7795   -2.5303    1.2526 C   0  0  0  0  0  0  0  0  0  0  0  0
    5.3990    0.8464   -0.0552 H   0  0  0  0  0  0  0  0  0  0  0  0
    5.6311    1.4027   -1.7225 H   0  0  0  0  0  0  0  0  0  0  0  0
    4.1201    1.7537   -0.8689 H   0  0  0  0  0  0  0  0  0  0  0  0
    5.1005   -1.0249   -1.7150 H   0  0  0  0  0  0  0  0  0  0  0  0
    3.7713   -0.0996   -2.4701 H   0  0  0  0  0  0  0  0  0  0  0  0
    1.1959   -1.3736    2.5440 H   0  0  0  0  0  0  0  0  0  0  0  0
    0.5146   -2.8251    1.7469 H   0  0  0  0  0  0  0  0  0  0  0  0
    2.8463   -3.5720    1.1979 H   0  0  0  0  0  0  0  0  0  0  0  0
    3.4867   -2.1390    2.0141 H   0  0  0  0  0  0  0  0  0  0  0  0
    2.6368   -3.3807    2.9509 H   0  0  0  0  0  0  0  0  0  0  0  0
   -0.5413    2.3129   -0.9813 H   0  0  0  0  0  0  0  0  0  0  0  0
    0.7381    2.3695    0.2857 H   0  0  0  0  0  0  0  0  0  0  0  0
   -4.3135    2.8056   -1.6183 H   0  0  0  0  0  0  0  0  0  0  0  0
   -4.8020    1.6731   -0.3265 H   0  0  0  0  0  0  0  0  0  0  0  0
   -4.1897    3.9037    0.6048 H   0  0  0  0  0  0  0  0  0  0  0  0
   -3.0910    2.6504    1.1928 H   0  0  0  0  0  0  0  0  0  0  0  0
   -2.5694    3.7580   -0.0852 H   0  0  0  0  0  0  0  0  0  0  0  0
   -2.8326   -0.6532    2.3173 H   0  0  0  0  0  0  0  0  0  0  0  0
   -4.4461   -1.3253    1.9344 H   0  0  0  0  0  0  0  0  0  0  0  0
   -3.3482   -3.0520    0.4867 H   0  0  0  0  0  0  0  0  0  0  0  0
   -1.7692   -2.3720    0.8764 H   0  0  0  0  0  0  0  0  0  0  0  0
   -2.7364   -3.1390    2.1500 H   0  0  0  0  0  0  0  0  0  0  0  0
  1  2  1  0  0  0  0
  2  3  1  0  0  0  0
  3  4  2  0  0  0  0
  4  5  2  0  0  0  0
  4  6  2  0  0  0  0
  6  7  1  0  0  0  0
  7  8  1  0  0  0  0
  4  9  1  0  0  0  0
  9 10  1  0  0  0  0
 10 11  1  0  0  0  0
 11 12  1  0  0  0  0
 12 13  2  0  0  0  0
 12 14  2  0  0  0  0
 14 15  1  0  0  0  0
 15 16  1  0  0  0  0
 12 17  2  0  0  0  0
 17 18  1  0  0  0  0
 18 19  1  0  0  0  0
  1 20  1  0  0  0  0
  1 21  1  0  0  0  0
  1 22  1  0  0  0  0
  2 23  1  0  0  0  0
  2 24  1  0  0  0  0
  7 25  1  0  0  0  0
  7 26  1  0  0  0  0
  8 27  1  0  0  0  0
  8 28  1  0  0  0  0
  8 29  1  0  0  0  0
 10 30  1  0  0  0  0
 10 31  1  0  0  0  0
 15 32  1  0  0  0  0
 15 33  1  0  0  0  0
 16 34  1  0  0  0  0
 16 35  1  0  0  0  0
 16 36  1  0  0  0  0
 18 37  1  0  0  0  0
 18 38  1  0  0  0  0
 19 39  1  0  0  0  0
 19 40  1  0  0  0  0
 19 41  1  0  0  0  0
M  END
