 xtb: 6.7.1 (edcfbbe)
          04032519423D

 20 20  0     0  0            999 V2000
    0.8579    1.3839   -0.6056 C   0  0  0  0  0  0  0  0  0  0  0  0
    1.5938    0.1636   -0.0380 C   0  0  0  0  0  0  0  0  0  0  0  0
    2.5655    0.0712   -0.5327 H   0  0  0  0  0  0  0  0  0  0  0  0
    0.7743   -1.1117   -0.3340 C   0  0  0  0  0  0  0  0  0  0  0  0
    1.2378   -1.9386    0.2246 H   0  0  0  0  0  0  0  0  0  0  0  0
   -0.6806   -0.9239    0.1511 C   0  0  0  0  0  0  0  0  0  0  0  0
   -1.3050   -1.7528   -0.2108 H   0  0  0  0  0  0  0  0  0  0  0  0
   -1.2545    0.3772   -0.4504 C   0  0  0  0  0  0  0  0  0  0  0  0
   -1.2786    0.2798   -1.5481 H   0  0  0  0  0  0  0  0  0  0  0  0
   -0.4546    1.4809   -0.0867 O   0  0  0  0  0  0  0  0  0  0  0  0
   -2.5480    0.6116   -0.0382 O   0  0  0  0  0  0  0  0  0  0  0  0
   -0.7645   -0.8058    1.5521 O   0  0  0  0  0  0  0  0  0  0  0  0
    0.8246   -1.3440   -1.7200 O   0  0  0  0  0  0  0  0  0  0  0  0
    1.8588    0.2968    1.3333 O   0  0  0  0  0  0  0  0  0  0  0  0
    0.8279    1.3081   -1.6997 H   0  0  0  0  0  0  0  0  0  0  0  0
    1.3602    2.3025   -0.3029 H   0  0  0  0  0  0  0  0  0  0  0  0
   -2.5513    0.7034    0.9295 H   0  0  0  0  0  0  0  0  0  0  0  0
   -0.6017   -1.6635    1.9685 H   0  0  0  0  0  0  0  0  0  0  0  0
    0.5524   -2.2517   -1.9170 H   0  0  0  0  0  0  0  0  0  0  0  0
    1.0155    0.4608    1.7893 H   0  0  0  0  0  0  0  0  0  0  0  0
  1  2  1  0  0  0  0
  2  3  1  0  0  0  0
  2  4  1  0  0  0  0
  4  5  1  0  0  0  0
  4  6  1  0  0  0  0
  6  7  1  0  0  0  0
  6  8  1  0  0  0  0
  8  9  1  0  0  0  0
  1 10  1  0  0  0  0
  8 10  1  0  0  0  0
  8 11  1  0  0  0  0
  6 12  1  0  0  0  0
  4 13  1  0  0  0  0
  2 14  1  0  0  0  0
  1 15  1  0  0  0  0
  1 16  1  0  0  0  0
 11 17  1  0  0  0  0
 12 18  1  0  0  0  0
 13 19  1  0  0  0  0
 14 20  1  0  0  0  0
M  END
