 xtb: 6.7.1 (edcfbbe)
          04092505213D

 41 40  0     0  0            999 V2000
    1.6801    2.7742    0.3334 C   0  0  0  0  0  0  0  0  0  0  0  0
    1.9736    1.7964   -0.7883 C   0  0  0  0  0  0  0  0  0  0  0  0
    2.8894    0.7688   -0.3814 O   0  0  0  0  0  0  0  0  0  0  0  0
    2.5330   -0.4897    0.5128 P   0  0  0  0  0  0  0  0  0  0  0  0
    2.2413   -0.2216    2.4366 S   0  0  0  0  0  0  0  0  0  0  0  0
    3.8505   -1.2868    0.1534 O   0  0  0  0  0  0  0  0  0  0  0  0
    4.3477   -2.3441    0.9918 C   0  0  0  0  0  0  0  0  0  0  0  0
    3.4816   -3.5857    0.9127 C   0  0  0  0  0  0  0  0  0  0  0  0
    0.9690   -1.4932   -0.5348 S   0  0  0  0  0  0  0  0  0  0  0  0
   -0.3443   -1.3386    0.7108 C   0  0  0  0  0  0  0  0  0  0  0  0
   -1.0066    0.3389    0.8969 S   0  0  0  0  0  0  0  0  0  0  0  0
   -2.1943    0.3952   -0.8802 P   0  0  0  0  0  0  0  0  0  0  0  0
   -1.2272    0.2986   -2.5802 S   0  0  0  0  0  0  0  0  0  0  0  0
   -3.0361    1.7228   -0.6596 O   0  0  0  0  0  0  0  0  0  0  0  0
   -2.4259    3.0220   -0.8089 C   0  0  0  0  0  0  0  0  0  0  0  0
   -3.5338    4.0377   -1.0001 C   0  0  0  0  0  0  0  0  0  0  0  0
   -3.2761   -0.7406   -0.7572 O   0  0  0  0  0  0  0  0  0  0  0  0
   -4.3728   -0.7544    0.1971 C   0  0  0  0  0  0  0  0  0  0  0  0
   -4.0306   -1.5825    1.4197 C   0  0  0  0  0  0  0  0  0  0  0  0
    2.6103    3.1783    0.7240 H   0  0  0  0  0  0  0  0  0  0  0  0
    1.0690    3.5846   -0.0515 H   0  0  0  0  0  0  0  0  0  0  0  0
    1.1483    2.2800    1.1445 H   0  0  0  0  0  0  0  0  0  0  0  0
    2.4860    2.2883   -1.6174 H   0  0  0  0  0  0  0  0  0  0  0  0
    1.0544    1.3356   -1.1690 H   0  0  0  0  0  0  0  0  0  0  0  0
    5.3529   -2.5295    0.6111 H   0  0  0  0  0  0  0  0  0  0  0  0
    4.4025   -1.9771    2.0222 H   0  0  0  0  0  0  0  0  0  0  0  0
    3.9617   -4.3941    1.4546 H   0  0  0  0  0  0  0  0  0  0  0  0
    2.5083   -3.3890    1.3600 H   0  0  0  0  0  0  0  0  0  0  0  0
    3.3388   -3.8797   -0.1242 H   0  0  0  0  0  0  0  0  0  0  0  0
    0.0536   -1.6031    1.6903 H   0  0  0  0  0  0  0  0  0  0  0  0
   -1.1364   -2.0154    0.4001 H   0  0  0  0  0  0  0  0  0  0  0  0
   -1.8450    3.2273    0.0942 H   0  0  0  0  0  0  0  0  0  0  0  0
   -1.7539    2.9930   -1.6731 H   0  0  0  0  0  0  0  0  0  0  0  0
   -4.1967    4.0335   -0.1400 H   0  0  0  0  0  0  0  0  0  0  0  0
   -3.0958    5.0241   -1.1108 H   0  0  0  0  0  0  0  0  0  0  0  0
   -4.1086    3.7990   -1.8906 H   0  0  0  0  0  0  0  0  0  0  0  0
   -4.6199    0.2727    0.4663 H   0  0  0  0  0  0  0  0  0  0  0  0
   -5.1973   -1.1987   -0.3626 H   0  0  0  0  0  0  0  0  0  0  0  0
   -3.7214   -2.5818    1.1241 H   0  0  0  0  0  0  0  0  0  0  0  0
   -3.2344   -1.1163    1.9950 H   0  0  0  0  0  0  0  0  0  0  0  0
   -4.9141   -1.6596    2.0460 H   0  0  0  0  0  0  0  0  0  0  0  0
  1  2  1  0  0  0  0
  2  3  1  0  0  0  0
  3  4  2  0  0  0  0
  4  5  2  0  0  0  0
  4  6  2  0  0  0  0
  6  7  1  0  0  0  0
  7  8  1  0  0  0  0
  4  9  1  0  0  0  0
  9 10  1  0  0  0  0
 10 11  1  0  0  0  0
 11 12  1  0  0  0  0
 12 13  2  0  0  0  0
 12 14  2  0  0  0  0
 14 15  1  0  0  0  0
 15 16  1  0  0  0  0
 12 17  2  0  0  0  0
 17 18  1  0  0  0  0
 18 19  1  0  0  0  0
  1 20  1  0  0  0  0
  1 21  1  0  0  0  0
  1 22  1  0  0  0  0
  2 23  1  0  0  0  0
  2 24  1  0  0  0  0
  7 25  1  0  0  0  0
  7 26  1  0  0  0  0
  8 27  1  0  0  0  0
  8 28  1  0  0  0  0
  8 29  1  0  0  0  0
 10 30  1  0  0  0  0
 10 31  1  0  0  0  0
 15 32  1  0  0  0  0
 15 33  1  0  0  0  0
 16 34  1  0  0  0  0
 16 35  1  0  0  0  0
 16 36  1  0  0  0  0
 18 37  1  0  0  0  0
 18 38  1  0  0  0  0
 19 39  1  0  0  0  0
 19 40  1  0  0  0  0
 19 41  1  0  0  0  0
M  END
