 xtb: 6.7.1 (edcfbbe)
          04092505213D

 41 40  0     0  0            999 V2000
    2.3563    0.6732   -2.8651 C   0  0  0  0  0  0  0  0  0  0  0  0
    1.7383   -0.6853   -2.6019 C   0  0  0  0  0  0  0  0  0  0  0  0
    1.2148   -0.7939   -1.2664 O   0  0  0  0  0  0  0  0  0  0  0  0
    2.1861   -0.9393   -0.0175 P   0  0  0  0  0  0  0  0  0  0  0  0
    3.9093   -1.8126   -0.3317 S   0  0  0  0  0  0  0  0  0  0  0  0
    1.1792   -1.7541    0.9012 O   0  0  0  0  0  0  0  0  0  0  0  0
    1.6140   -2.4521    2.0805 C   0  0  0  0  0  0  0  0  0  0  0  0
    1.9032   -1.5040    3.2278 C   0  0  0  0  0  0  0  0  0  0  0  0
    2.3132    1.0173    0.8165 S   0  0  0  0  0  0  0  0  0  0  0  0
    0.6562    1.6644    0.4692 C   0  0  0  0  0  0  0  0  0  0  0  0
   -0.6831    0.6798    1.2120 S   0  0  0  0  0  0  0  0  0  0  0  0
   -2.0973    0.9454   -0.3603 P   0  0  0  0  0  0  0  0  0  0  0  0
   -1.4083    1.0711   -2.1848 S   0  0  0  0  0  0  0  0  0  0  0  0
   -2.8620    2.2731    0.0224 O   0  0  0  0  0  0  0  0  0  0  0  0
   -3.4606    2.5484    1.3114 C   0  0  0  0  0  0  0  0  0  0  0  0
   -4.8908    2.0534    1.3759 C   0  0  0  0  0  0  0  0  0  0  0  0
   -3.1871   -0.1860   -0.1109 O   0  0  0  0  0  0  0  0  0  0  0  0
   -3.0910   -1.4991   -0.6877 C   0  0  0  0  0  0  0  0  0  0  0  0
   -2.1011   -2.3748    0.0530 C   0  0  0  0  0  0  0  0  0  0  0  0
    3.1743    0.8530   -2.1675 H   0  0  0  0  0  0  0  0  0  0  0  0
    2.7457    0.6958   -3.8777 H   0  0  0  0  0  0  0  0  0  0  0  0
    1.6090    1.4563   -2.7593 H   0  0  0  0  0  0  0  0  0  0  0  0
    2.4773   -1.4790   -2.7485 H   0  0  0  0  0  0  0  0  0  0  0  0
    0.8702   -0.8548   -3.2407 H   0  0  0  0  0  0  0  0  0  0  0  0
    0.7811   -3.1178    2.3115 H   0  0  0  0  0  0  0  0  0  0  0  0
    2.5016   -3.0418    1.8284 H   0  0  0  0  0  0  0  0  0  0  0  0
    2.0895   -2.0797    4.1287 H   0  0  0  0  0  0  0  0  0  0  0  0
    2.7824   -0.9007    3.0059 H   0  0  0  0  0  0  0  0  0  0  0  0
    1.0543   -0.8434    3.3894 H   0  0  0  0  0  0  0  0  0  0  0  0
    0.4899    1.6976   -0.6094 H   0  0  0  0  0  0  0  0  0  0  0  0
    0.6540    2.6626    0.9010 H   0  0  0  0  0  0  0  0  0  0  0  0
   -2.8471    2.0861    2.0903 H   0  0  0  0  0  0  0  0  0  0  0  0
   -3.4131    3.6354    1.3965 H   0  0  0  0  0  0  0  0  0  0  0  0
   -5.3315    2.3691    2.3165 H   0  0  0  0  0  0  0  0  0  0  0  0
   -5.4666    2.4695    0.5536 H   0  0  0  0  0  0  0  0  0  0  0  0
   -4.9215    0.9693    1.3121 H   0  0  0  0  0  0  0  0  0  0  0  0
   -4.1059   -1.8935   -0.6135 H   0  0  0  0  0  0  0  0  0  0  0  0
   -2.8115   -1.3982   -1.7415 H   0  0  0  0  0  0  0  0  0  0  0  0
   -2.1695   -3.3898   -0.3256 H   0  0  0  0  0  0  0  0  0  0  0  0
   -1.0848   -2.0145   -0.0964 H   0  0  0  0  0  0  0  0  0  0  0  0
   -2.3217   -2.3721    1.1175 H   0  0  0  0  0  0  0  0  0  0  0  0
  1  2  1  0  0  0  0
  2  3  1  0  0  0  0
  3  4  2  0  0  0  0
  4  5  2  0  0  0  0
  4  6  2  0  0  0  0
  6  7  1  0  0  0  0
  7  8  1  0  0  0  0
  4  9  1  0  0  0  0
  9 10  1  0  0  0  0
 10 11  1  0  0  0  0
 11 12  1  0  0  0  0
 12 13  2  0  0  0  0
 12 14  2  0  0  0  0
 14 15  1  0  0  0  0
 15 16  1  0  0  0  0
 12 17  2  0  0  0  0
 17 18  1  0  0  0  0
 18 19  1  0  0  0  0
  1 20  1  0  0  0  0
  1 21  1  0  0  0  0
  1 22  1  0  0  0  0
  2 23  1  0  0  0  0
  2 24  1  0  0  0  0
  7 25  1  0  0  0  0
  7 26  1  0  0  0  0
  8 27  1  0  0  0  0
  8 28  1  0  0  0  0
  8 29  1  0  0  0  0
 10 30  1  0  0  0  0
 10 31  1  0  0  0  0
 15 32  1  0  0  0  0
 15 33  1  0  0  0  0
 16 34  1  0  0  0  0
 16 35  1  0  0  0  0
 16 36  1  0  0  0  0
 18 37  1  0  0  0  0
 18 38  1  0  0  0  0
 19 39  1  0  0  0  0
 19 40  1  0  0  0  0
 19 41  1  0  0  0  0
M  END
