 xtb: 6.7.1 (edcfbbe)
          04092507313D

 38 37  0     0  0            999 V2000
    4.1845   -2.3288    1.0414 C   0  0  0  0  0  0  0  0  0  0  0  0
    2.7148   -2.2350    0.6821 C   0  0  0  0  0  0  0  0  0  0  0  0
    2.5634   -1.2118   -0.3208 O   0  0  0  0  0  0  0  0  0  0  0  0
    1.4676   -1.1934   -1.0445 C   0  0  0  0  0  0  0  0  0  0  0  0
    0.5455   -1.9765   -0.9217 O   0  0  0  0  0  0  0  0  0  0  0  0
    1.4778   -0.0703   -2.0609 C   0  0  0  0  0  0  0  0  0  0  0  0
    0.3516    0.9251   -1.7676 C   0  0  0  0  0  0  0  0  0  0  0  0
    0.3183    1.6783   -2.5600 H   0  0  0  0  0  0  0  0  0  0  0  0
    0.5271    1.6334   -0.4387 C   0  0  0  0  0  0  0  0  0  0  0  0
   -0.3951    1.7775    0.3440 O   0  0  0  0  0  0  0  0  0  0  0  0
    1.7471    2.0406   -0.2446 O   0  0  0  0  0  0  0  0  0  0  0  0
    2.0607    2.7165    0.9938 C   0  0  0  0  0  0  0  0  0  0  0  0
    1.7116    4.1927    0.9109 C   0  0  0  0  0  0  0  0  0  0  0  0
   -1.3079    0.1583   -1.7861 S   0  0  0  0  0  0  0  0  0  0  0  0
   -1.7186   -0.3199    0.2459 P   0  0  0  0  0  0  0  0  0  0  0  0
   -0.4719   -0.7512    1.7123 S   0  0  0  0  0  0  0  0  0  0  0  0
   -2.9017    0.6668    0.6425 O   0  0  0  0  0  0  0  0  0  0  0  0
   -2.8643    1.6295    1.6949 C   0  0  0  0  0  0  0  0  0  0  0  0
   -2.7175   -1.5455   -0.0292 O   0  0  0  0  0  0  0  0  0  0  0  0
   -2.2878   -2.8583   -0.3836 C   0  0  0  0  0  0  0  0  0  0  0  0
    4.7678   -2.5930    0.1642 H   0  0  0  0  0  0  0  0  0  0  0  0
    4.5341   -1.3756    1.4251 H   0  0  0  0  0  0  0  0  0  0  0  0
    4.3156   -3.0903    1.8027 H   0  0  0  0  0  0  0  0  0  0  0  0
    2.0990   -1.9568    1.5437 H   0  0  0  0  0  0  0  0  0  0  0  0
    2.3295   -3.1750    0.2746 H   0  0  0  0  0  0  0  0  0  0  0  0
    1.3069   -0.5017   -3.0474 H   0  0  0  0  0  0  0  0  0  0  0  0
    2.4388    0.4410   -2.0224 H   0  0  0  0  0  0  0  0  0  0  0  0
    1.5159    2.2253    1.8050 H   0  0  0  0  0  0  0  0  0  0  0  0
    3.1334    2.5654    1.1105 H   0  0  0  0  0  0  0  0  0  0  0  0
    2.0192    4.6820    1.8290 H   0  0  0  0  0  0  0  0  0  0  0  0
    2.2240    4.6522    0.0705 H   0  0  0  0  0  0  0  0  0  0  0  0
    0.6386    4.3208    0.7881 H   0  0  0  0  0  0  0  0  0  0  0  0
   -2.6349    2.6080    1.2765 H   0  0  0  0  0  0  0  0  0  0  0  0
   -2.1067    1.3582    2.4325 H   0  0  0  0  0  0  0  0  0  0  0  0
   -3.8538    1.6216    2.1464 H   0  0  0  0  0  0  0  0  0  0  0  0
   -1.5084   -3.1973    0.3007 H   0  0  0  0  0  0  0  0  0  0  0  0
   -1.8975   -2.8689   -1.4010 H   0  0  0  0  0  0  0  0  0  0  0  0
   -3.1719   -3.4854   -0.3003 H   0  0  0  0  0  0  0  0  0  0  0  0
  1  2  1  0  0  0  0
  2  3  1  0  0  0  0
  3  4  4  0  0  0  0
  4  5  2  0  0  0  0
  4  6  1  0  0  0  0
  6  7  1  0  0  0  0
  7  8  1  0  0  0  0
  7  9  1  0  0  0  0
  9 10  2  0  0  0  0
  9 11  4  0  0  0  0
 11 12  1  0  0  0  0
 12 13  1  0  0  0  0
  7 14  1  0  0  0  0
 14 15  1  0  0  0  0
 15 16  2  0  0  0  0
 15 17  1  0  0  0  0
 17 18  1  0  0  0  0
 15 19  1  0  0  0  0
 19 20  1  0  0  0  0
  1 21  1  0  0  0  0
  1 22  1  0  0  0  0
  1 23  1  0  0  0  0
  2 24  1  0  0  0  0
  2 25  1  0  0  0  0
  6 26  1  0  0  0  0
  6 27  1  0  0  0  0
 12 28  1  0  0  0  0
 12 29  1  0  0  0  0
 13 30  1  0  0  0  0
 13 31  1  0  0  0  0
 13 32  1  0  0  0  0
 18 33  1  0  0  0  0
 18 34  1  0  0  0  0
 18 35  1  0  0  0  0
 20 36  1  0  0  0  0
 20 37  1  0  0  0  0
 20 38  1  0  0  0  0
M  END
