 xtb: 6.7.1 (edcfbbe)
          04092505213D

 41 40  0     0  0            999 V2000
    3.8073   -2.3583   -2.0488 C   0  0  0  0  0  0  0  0  0  0  0  0
    4.0331   -0.8827   -2.2939 C   0  0  0  0  0  0  0  0  0  0  0  0
    4.0982   -0.1134   -1.0683 O   0  0  0  0  0  0  0  0  0  0  0  0
    3.0350   -0.1029    0.0936 P   0  0  0  0  0  0  0  0  0  0  0  0
    3.2343    1.4804    1.2291 S   0  0  0  0  0  0  0  0  0  0  0  0
    3.3357   -1.4802    0.8313 O   0  0  0  0  0  0  0  0  0  0  0  0
    2.9066   -1.7641    2.1713 C   0  0  0  0  0  0  0  0  0  0  0  0
    1.4326   -2.1121    2.2321 C   0  0  0  0  0  0  0  0  0  0  0  0
    1.1503   -0.3169   -0.9004 S   0  0  0  0  0  0  0  0  0  0  0  0
    0.2747    1.1105   -0.2178 C   0  0  0  0  0  0  0  0  0  0  0  0
   -0.8940    0.6831    1.1090 S   0  0  0  0  0  0  0  0  0  0  0  0
   -2.6891    0.6492   -0.0122 P   0  0  0  0  0  0  0  0  0  0  0  0
   -2.5750    0.9922   -1.9443 S   0  0  0  0  0  0  0  0  0  0  0  0
   -3.4840    1.7253    0.8350 O   0  0  0  0  0  0  0  0  0  0  0  0
   -4.6735    2.3759    0.3428 C   0  0  0  0  0  0  0  0  0  0  0  0
   -5.8350    1.4147    0.1984 C   0  0  0  0  0  0  0  0  0  0  0  0
   -3.4377   -0.6950    0.3876 O   0  0  0  0  0  0  0  0  0  0  0  0
   -3.2635   -1.9243   -0.3374 C   0  0  0  0  0  0  0  0  0  0  0  0
   -1.8858   -2.5183   -0.1269 C   0  0  0  0  0  0  0  0  0  0  0  0
    2.8235   -2.5165   -1.6106 H   0  0  0  0  0  0  0  0  0  0  0  0
    3.8612   -2.8872   -2.9953 H   0  0  0  0  0  0  0  0  0  0  0  0
    4.5633   -2.7484   -1.3727 H   0  0  0  0  0  0  0  0  0  0  0  0
    3.2360   -0.4656   -2.9147 H   0  0  0  0  0  0  0  0  0  0  0  0
    5.0020   -0.6916   -2.7574 H   0  0  0  0  0  0  0  0  0  0  0  0
    3.5293   -2.6084    2.4719 H   0  0  0  0  0  0  0  0  0  0  0  0
    3.1290   -0.8977    2.8031 H   0  0  0  0  0  0  0  0  0  0  0  0
    0.8266   -1.2329    2.0184 H   0  0  0  0  0  0  0  0  0  0  0  0
    1.2012   -2.8894    1.5085 H   0  0  0  0  0  0  0  0  0  0  0  0
    1.1902   -2.4650    3.2293 H   0  0  0  0  0  0  0  0  0  0  0  0
   -0.2780    1.5697   -1.0378 H   0  0  0  0  0  0  0  0  0  0  0  0
    1.0094    1.7959    0.2092 H   0  0  0  0  0  0  0  0  0  0  0  0
   -4.8751    3.1446    1.0901 H   0  0  0  0  0  0  0  0  0  0  0  0
   -4.4378    2.8448   -0.6182 H   0  0  0  0  0  0  0  0  0  0  0  0
   -5.6299    0.6987   -0.5960 H   0  0  0  0  0  0  0  0  0  0  0  0
   -5.9915    0.8740    1.1281 H   0  0  0  0  0  0  0  0  0  0  0  0
   -6.7323    1.9720   -0.0523 H   0  0  0  0  0  0  0  0  0  0  0  0
   -4.0464   -2.5737    0.0570 H   0  0  0  0  0  0  0  0  0  0  0  0
   -3.4409   -1.7286   -1.4000 H   0  0  0  0  0  0  0  0  0  0  0  0
   -1.8458   -3.5021   -0.5830 H   0  0  0  0  0  0  0  0  0  0  0  0
   -1.1293   -1.8862   -0.5919 H   0  0  0  0  0  0  0  0  0  0  0  0
   -1.6720   -2.6026    0.9358 H   0  0  0  0  0  0  0  0  0  0  0  0
  1  2  1  0  0  0  0
  2  3  1  0  0  0  0
  3  4  2  0  0  0  0
  4  5  2  0  0  0  0
  4  6  2  0  0  0  0
  6  7  1  0  0  0  0
  7  8  1  0  0  0  0
  4  9  1  0  0  0  0
  9 10  1  0  0  0  0
 10 11  1  0  0  0  0
 11 12  1  0  0  0  0
 12 13  2  0  0  0  0
 12 14  2  0  0  0  0
 14 15  1  0  0  0  0
 15 16  1  0  0  0  0
 12 17  2  0  0  0  0
 17 18  1  0  0  0  0
 18 19  1  0  0  0  0
  1 20  1  0  0  0  0
  1 21  1  0  0  0  0
  1 22  1  0  0  0  0
  2 23  1  0  0  0  0
  2 24  1  0  0  0  0
  7 25  1  0  0  0  0
  7 26  1  0  0  0  0
  8 27  1  0  0  0  0
  8 28  1  0  0  0  0
  8 29  1  0  0  0  0
 10 30  1  0  0  0  0
 10 31  1  0  0  0  0
 15 32  1  0  0  0  0
 15 33  1  0  0  0  0
 16 34  1  0  0  0  0
 16 35  1  0  0  0  0
 16 36  1  0  0  0  0
 18 37  1  0  0  0  0
 18 38  1  0  0  0  0
 19 39  1  0  0  0  0
 19 40  1  0  0  0  0
 19 41  1  0  0  0  0
M  END
