 xtb: 6.7.1 (edcfbbe)
          04092505213D

 41 40  0     0  0            999 V2000
    4.5509   -1.5592   -1.9471 C   0  0  0  0  0  0  0  0  0  0  0  0
    3.7652   -2.2125   -0.8299 C   0  0  0  0  0  0  0  0  0  0  0  0
    3.3628   -1.2770    0.1886 O   0  0  0  0  0  0  0  0  0  0  0  0
    2.5419    0.0592   -0.0637 P   0  0  0  0  0  0  0  0  0  0  0  0
    3.4695    1.6312   -0.7675 S   0  0  0  0  0  0  0  0  0  0  0  0
    2.0061    0.3840    1.3782 O   0  0  0  0  0  0  0  0  0  0  0  0
    1.2621   -0.5435    2.2091 C   0  0  0  0  0  0  0  0  0  0  0  0
    0.7177    0.2448    3.3820 C   0  0  0  0  0  0  0  0  0  0  0  0
    0.8834   -0.6179   -1.2331 S   0  0  0  0  0  0  0  0  0  0  0  0
    0.1919    1.0257   -1.5090 C   0  0  0  0  0  0  0  0  0  0  0  0
   -0.7150    1.6612   -0.0773 S   0  0  0  0  0  0  0  0  0  0  0  0
   -2.3599    0.3373   -0.2884 P   0  0  0  0  0  0  0  0  0  0  0  0
   -2.9725   -0.0423   -2.1041 S   0  0  0  0  0  0  0  0  0  0  0  0
   -3.5045    1.0067    0.5739 O   0  0  0  0  0  0  0  0  0  0  0  0
   -3.3253    1.6399    1.8632 C   0  0  0  0  0  0  0  0  0  0  0  0
   -3.2417    0.6245    2.9843 C   0  0  0  0  0  0  0  0  0  0  0  0
   -1.8044   -0.9329    0.5129 O   0  0  0  0  0  0  0  0  0  0  0  0
   -2.1892   -2.2777    0.1736 C   0  0  0  0  0  0  0  0  0  0  0  0
   -3.5930   -2.5796    0.6561 C   0  0  0  0  0  0  0  0  0  0  0  0
    4.8968   -2.3204   -2.6389 H   0  0  0  0  0  0  0  0  0  0  0  0
    3.9221   -0.8506   -2.4847 H   0  0  0  0  0  0  0  0  0  0  0  0
    5.4061   -1.0209   -1.5455 H   0  0  0  0  0  0  0  0  0  0  0  0
    4.3725   -2.9379   -0.2856 H   0  0  0  0  0  0  0  0  0  0  0  0
    2.8661   -2.6966   -1.2213 H   0  0  0  0  0  0  0  0  0  0  0  0
    0.4560   -0.9771    1.6098 H   0  0  0  0  0  0  0  0  0  0  0  0
    1.9429   -1.3342    2.5295 H   0  0  0  0  0  0  0  0  0  0  0  0
    0.0695    1.0403    3.0235 H   0  0  0  0  0  0  0  0  0  0  0  0
    0.1567   -0.4194    4.0317 H   0  0  0  0  0  0  0  0  0  0  0  0
    1.5353    0.6903    3.9411 H   0  0  0  0  0  0  0  0  0  0  0  0
   -0.4863    0.9507   -2.3596 H   0  0  0  0  0  0  0  0  0  0  0  0
    1.0056    1.7260   -1.7062 H   0  0  0  0  0  0  0  0  0  0  0  0
   -2.4276    2.2633    1.8226 H   0  0  0  0  0  0  0  0  0  0  0  0
   -4.2067    2.2758    1.9619 H   0  0  0  0  0  0  0  0  0  0  0  0
   -3.1648    1.1502    3.9310 H   0  0  0  0  0  0  0  0  0  0  0  0
   -4.1341    0.0042    2.9920 H   0  0  0  0  0  0  0  0  0  0  0  0
   -2.3678   -0.0085    2.8562 H   0  0  0  0  0  0  0  0  0  0  0  0
   -2.1169   -2.3990   -0.9117 H   0  0  0  0  0  0  0  0  0  0  0  0
   -1.4446   -2.9062    0.6640 H   0  0  0  0  0  0  0  0  0  0  0  0
   -3.6597   -2.4571    1.7336 H   0  0  0  0  0  0  0  0  0  0  0  0
   -4.2963   -1.8985    0.1769 H   0  0  0  0  0  0  0  0  0  0  0  0
   -3.8542   -3.5994    0.3922 H   0  0  0  0  0  0  0  0  0  0  0  0
  1  2  1  0  0  0  0
  2  3  1  0  0  0  0
  3  4  2  0  0  0  0
  4  5  2  0  0  0  0
  4  6  2  0  0  0  0
  6  7  1  0  0  0  0
  7  8  1  0  0  0  0
  4  9  1  0  0  0  0
  9 10  1  0  0  0  0
 10 11  1  0  0  0  0
 11 12  1  0  0  0  0
 12 13  2  0  0  0  0
 12 14  2  0  0  0  0
 14 15  1  0  0  0  0
 15 16  1  0  0  0  0
 12 17  1  0  0  0  0
 17 18  1  0  0  0  0
 18 19  1  0  0  0  0
  1 20  1  0  0  0  0
  1 21  1  0  0  0  0
  1 22  1  0  0  0  0
  2 23  1  0  0  0  0
  2 24  1  0  0  0  0
  7 25  1  0  0  0  0
  7 26  1  0  0  0  0
  8 27  1  0  0  0  0
  8 28  1  0  0  0  0
  8 29  1  0  0  0  0
 10 30  1  0  0  0  0
 10 31  1  0  0  0  0
 15 32  1  0  0  0  0
 15 33  1  0  0  0  0
 16 34  1  0  0  0  0
 16 35  1  0  0  0  0
 16 36  1  0  0  0  0
 18 37  1  0  0  0  0
 18 38  1  0  0  0  0
 19 39  1  0  0  0  0
 19 40  1  0  0  0  0
 19 41  1  0  0  0  0
M  END
