 xtb: 6.7.1 (edcfbbe)
          04092507313D

 38 37  0     0  0            999 V2000
    3.9857   -2.6904    1.3031 C   0  0  0  0  0  0  0  0  0  0  0  0
    2.7771   -1.7810    1.3931 C   0  0  0  0  0  0  0  0  0  0  0  0
    2.4741   -1.3151    0.0647 O   0  0  0  0  0  0  0  0  0  0  0  0
    1.5392   -0.4152   -0.0802 C   0  0  0  0  0  0  0  0  0  0  0  0
    0.9450    0.1263    0.8402 O   0  0  0  0  0  0  0  0  0  0  0  0
    1.3067   -0.0421   -1.5267 C   0  0  0  0  0  0  0  0  0  0  0  0
    0.2231    1.0221   -1.6102 C   0  0  0  0  0  0  0  0  0  0  0  0
    0.2579    1.5255   -2.5805 H   0  0  0  0  0  0  0  0  0  0  0  0
    0.3776    2.0770   -0.5214 C   0  0  0  0  0  0  0  0  0  0  0  0
   -0.5456    2.5318    0.1155 O   0  0  0  0  0  0  0  0  0  0  0  0
    1.6207    2.5040   -0.4483 O   0  0  0  0  0  0  0  0  0  0  0  0
    1.9132    3.5204    0.5323 C   0  0  0  0  0  0  0  0  0  0  0  0
    3.3233    4.0193    0.2882 C   0  0  0  0  0  0  0  0  0  0  0  0
   -1.4798    0.3721   -1.5652 S   0  0  0  0  0  0  0  0  0  0  0  0
   -1.6716   -0.9248    0.1062 P   0  0  0  0  0  0  0  0  0  0  0  0
   -0.5678   -2.5419    0.1715 S   0  0  0  0  0  0  0  0  0  0  0  0
   -1.7276   -0.1530    1.4805 O   0  0  0  0  0  0  0  0  0  0  0  0
   -2.6559    0.9107    1.7700 C   0  0  0  0  0  0  0  0  0  0  0  0
   -3.2240   -1.2760   -0.0819 O   0  0  0  0  0  0  0  0  0  0  0  0
   -3.6791   -2.1122   -1.1515 C   0  0  0  0  0  0  0  0  0  0  0  0
    4.2275   -3.0620    2.2930 H   0  0  0  0  0  0  0  0  0  0  0  0
    3.7639   -3.5282    0.6493 H   0  0  0  0  0  0  0  0  0  0  0  0
    4.8354   -2.1446    0.9043 H   0  0  0  0  0  0  0  0  0  0  0  0
    2.9581   -0.9113    2.0329 H   0  0  0  0  0  0  0  0  0  0  0  0
    1.8961   -2.3114    1.7701 H   0  0  0  0  0  0  0  0  0  0  0  0
    1.0357   -0.9365   -2.0903 H   0  0  0  0  0  0  0  0  0  0  0  0
    2.2451    0.3444   -1.9283 H   0  0  0  0  0  0  0  0  0  0  0  0
    1.1716    4.3189    0.4305 H   0  0  0  0  0  0  0  0  0  0  0  0
    1.8014    3.0695    1.5238 H   0  0  0  0  0  0  0  0  0  0  0  0
    4.0322    3.2033    0.3912 H   0  0  0  0  0  0  0  0  0  0  0  0
    3.4040    4.4321   -0.7128 H   0  0  0  0  0  0  0  0  0  0  0  0
    3.5578    4.7904    1.0143 H   0  0  0  0  0  0  0  0  0  0  0  0
   -3.6490    0.6526    1.4086 H   0  0  0  0  0  0  0  0  0  0  0  0
   -2.3015    1.8310    1.3064 H   0  0  0  0  0  0  0  0  0  0  0  0
   -2.6475    1.0014    2.8531 H   0  0  0  0  0  0  0  0  0  0  0  0
   -4.6855   -2.4170   -0.8760 H   0  0  0  0  0  0  0  0  0  0  0  0
   -3.0293   -2.9837   -1.2460 H   0  0  0  0  0  0  0  0  0  0  0  0
   -3.6866   -1.5482   -2.0832 H   0  0  0  0  0  0  0  0  0  0  0  0
  1  2  1  0  0  0  0
  2  3  1  0  0  0  0
  3  4  4  0  0  0  0
  4  5  2  0  0  0  0
  4  6  1  0  0  0  0
  6  7  1  0  0  0  0
  7  8  1  0  0  0  0
  7  9  1  0  0  0  0
  9 10  2  0  0  0  0
  9 11  1  0  0  0  0
 11 12  1  0  0  0  0
 12 13  1  0  0  0  0
  7 14  1  0  0  0  0
 14 15  1  0  0  0  0
 15 16  2  0  0  0  0
 15 17  2  0  0  0  0
 17 18  1  0  0  0  0
 15 19  1  0  0  0  0
 19 20  1  0  0  0  0
  1 21  1  0  0  0  0
  1 22  1  0  0  0  0
  1 23  1  0  0  0  0
  2 24  1  0  0  0  0
  2 25  1  0  0  0  0
  6 26  1  0  0  0  0
  6 27  1  0  0  0  0
 12 28  1  0  0  0  0
 12 29  1  0  0  0  0
 13 30  1  0  0  0  0
 13 31  1  0  0  0  0
 13 32  1  0  0  0  0
 18 33  1  0  0  0  0
 18 34  1  0  0  0  0
 18 35  1  0  0  0  0
 20 36  1  0  0  0  0
 20 37  1  0  0  0  0
 20 38  1  0  0  0  0
M  END
