 xtb: 6.7.1 (edcfbbe)
          04092505213D

 41 40  0     0  0            999 V2000
    5.7403   -1.1592   -0.1622 C   0  0  0  0  0  0  0  0  0  0  0  0
    4.5310   -1.4049    0.7192 C   0  0  0  0  0  0  0  0  0  0  0  0
    3.6922   -0.2322    0.7720 O   0  0  0  0  0  0  0  0  0  0  0  0
    2.4077   -0.0650   -0.1535 P   0  0  0  0  0  0  0  0  0  0  0  0
    2.6886   -0.3900   -2.0709 S   0  0  0  0  0  0  0  0  0  0  0  0
    1.9403    1.3871    0.2637 O   0  0  0  0  0  0  0  0  0  0  0  0
    2.3439    2.5728   -0.4602 C   0  0  0  0  0  0  0  0  0  0  0  0
    1.2466    3.0191   -1.4053 C   0  0  0  0  0  0  0  0  0  0  0  0
    0.9694   -1.2737    0.7987 S   0  0  0  0  0  0  0  0  0  0  0  0
   -0.1935   -1.3528   -0.5910 C   0  0  0  0  0  0  0  0  0  0  0  0
   -1.0228    0.2251   -0.9376 S   0  0  0  0  0  0  0  0  0  0  0  0
   -2.6513   -0.0122    0.4145 P   0  0  0  0  0  0  0  0  0  0  0  0
   -3.9694    1.4337    0.4617 S   0  0  0  0  0  0  0  0  0  0  0  0
   -1.9665   -0.4030    1.7929 O   0  0  0  0  0  0  0  0  0  0  0  0
   -1.7600    0.5628    2.8384 C   0  0  0  0  0  0  0  0  0  0  0  0
   -0.7887    1.6549    2.4368 C   0  0  0  0  0  0  0  0  0  0  0  0
   -3.2207   -1.4606    0.0842 O   0  0  0  0  0  0  0  0  0  0  0  0
   -4.3083   -1.6460   -0.8394 C   0  0  0  0  0  0  0  0  0  0  0  0
   -3.8967   -1.3732   -2.2729 C   0  0  0  0  0  0  0  0  0  0  0  0
    5.4275   -0.9836   -1.1893 H   0  0  0  0  0  0  0  0  0  0  0  0
    6.2896   -0.2913    0.1914 H   0  0  0  0  0  0  0  0  0  0  0  0
    6.3868   -2.0303   -0.1337 H   0  0  0  0  0  0  0  0  0  0  0  0
    4.8226   -1.5844    1.7555 H   0  0  0  0  0  0  0  0  0  0  0  0
    3.9456   -2.2529    0.3530 H   0  0  0  0  0  0  0  0  0  0  0  0
    2.5345    3.3175    0.3138 H   0  0  0  0  0  0  0  0  0  0  0  0
    3.2671    2.3643   -1.0074 H   0  0  0  0  0  0  0  0  0  0  0  0
    0.3188    3.1743   -0.8617 H   0  0  0  0  0  0  0  0  0  0  0  0
    1.5428    3.9467   -1.8841 H   0  0  0  0  0  0  0  0  0  0  0  0
    1.0755    2.2624   -2.1683 H   0  0  0  0  0  0  0  0  0  0  0  0
   -0.9334   -2.1078   -0.3374 H   0  0  0  0  0  0  0  0  0  0  0  0
    0.3567   -1.6128   -1.4956 H   0  0  0  0  0  0  0  0  0  0  0  0
   -2.7291    0.9973    3.1027 H   0  0  0  0  0  0  0  0  0  0  0  0
   -1.3773   -0.0314    3.6693 H   0  0  0  0  0  0  0  0  0  0  0  0
   -1.1965    2.2198    1.5980 H   0  0  0  0  0  0  0  0  0  0  0  0
   -0.6405    2.3289    3.2745 H   0  0  0  0  0  0  0  0  0  0  0  0
    0.1701    1.2334    2.1443 H   0  0  0  0  0  0  0  0  0  0  0  0
   -4.6013   -2.6867   -0.6940 H   0  0  0  0  0  0  0  0  0  0  0  0
   -5.1295   -0.9848   -0.5453 H   0  0  0  0  0  0  0  0  0  0  0  0
   -4.7284   -1.6006   -2.9320 H   0  0  0  0  0  0  0  0  0  0  0  0
   -3.6314   -0.3229   -2.3905 H   0  0  0  0  0  0  0  0  0  0  0  0
   -3.0423   -1.9853   -2.5508 H   0  0  0  0  0  0  0  0  0  0  0  0
  1  2  1  0  0  0  0
  2  3  1  0  0  0  0
  3  4  2  0  0  0  0
  4  5  2  0  0  0  0
  4  6  2  0  0  0  0
  6  7  1  0  0  0  0
  7  8  1  0  0  0  0
  4  9  1  0  0  0  0
  9 10  1  0  0  0  0
 10 11  1  0  0  0  0
 11 12  1  0  0  0  0
 12 13  2  0  0  0  0
 12 14  2  0  0  0  0
 14 15  1  0  0  0  0
 15 16  1  0  0  0  0
 12 17  2  0  0  0  0
 17 18  1  0  0  0  0
 18 19  1  0  0  0  0
  1 20  1  0  0  0  0
  1 21  1  0  0  0  0
  1 22  1  0  0  0  0
  2 23  1  0  0  0  0
  2 24  1  0  0  0  0
  7 25  1  0  0  0  0
  7 26  1  0  0  0  0
  8 27  1  0  0  0  0
  8 28  1  0  0  0  0
  8 29  1  0  0  0  0
 10 30  1  0  0  0  0
 10 31  1  0  0  0  0
 15 32  1  0  0  0  0
 15 33  1  0  0  0  0
 16 34  1  0  0  0  0
 16 35  1  0  0  0  0
 16 36  1  0  0  0  0
 18 37  1  0  0  0  0
 18 38  1  0  0  0  0
 19 39  1  0  0  0  0
 19 40  1  0  0  0  0
 19 41  1  0  0  0  0
M  END
