 xtb: 6.7.1 (edcfbbe)
          04092505213D

 41 40  0     0  0            999 V2000
    2.7241   -0.8758   -2.7830 C   0  0  0  0  0  0  0  0  0  0  0  0
    1.6735    0.0150   -2.1571 C   0  0  0  0  0  0  0  0  0  0  0  0
    1.1309   -0.5847   -0.9675 O   0  0  0  0  0  0  0  0  0  0  0  0
    1.9632   -0.6490    0.3903 P   0  0  0  0  0  0  0  0  0  0  0  0
    3.3017    0.7736    0.6030 S   0  0  0  0  0  0  0  0  0  0  0  0
    2.4936   -2.1431    0.3134 O   0  0  0  0  0  0  0  0  0  0  0  0
    2.9323   -2.9434    1.4286 C   0  0  0  0  0  0  0  0  0  0  0  0
    3.9608   -2.2448    2.2933 C   0  0  0  0  0  0  0  0  0  0  0  0
    0.4256   -0.7849    1.8284 S   0  0  0  0  0  0  0  0  0  0  0  0
    0.0296    0.9813    1.9856 C   0  0  0  0  0  0  0  0  0  0  0  0
   -0.0676    1.8732    0.4052 S   0  0  0  0  0  0  0  0  0  0  0  0
   -1.8106    1.0310   -0.4403 P   0  0  0  0  0  0  0  0  0  0  0  0
   -1.9299    1.2981   -2.3773 S   0  0  0  0  0  0  0  0  0  0  0  0
   -2.8502    1.7497    0.5218 O   0  0  0  0  0  0  0  0  0  0  0  0
   -4.2321    1.3504    0.6527 C   0  0  0  0  0  0  0  0  0  0  0  0
   -5.0514    1.7245   -0.5655 C   0  0  0  0  0  0  0  0  0  0  0  0
   -1.9445   -0.4826    0.0287 O   0  0  0  0  0  0  0  0  0  0  0  0
   -1.7958   -1.6290   -0.8238 C   0  0  0  0  0  0  0  0  0  0  0  0
   -3.0672   -2.4518   -0.7621 C   0  0  0  0  0  0  0  0  0  0  0  0
    2.3081   -1.8579   -2.9905 H   0  0  0  0  0  0  0  0  0  0  0  0
    3.0748   -0.4257   -3.7062 H   0  0  0  0  0  0  0  0  0  0  0  0
    3.5628   -0.9849   -2.0959 H   0  0  0  0  0  0  0  0  0  0  0  0
    0.8101    0.1578   -2.8106 H   0  0  0  0  0  0  0  0  0  0  0  0
    2.0927    0.9934   -1.8960 H   0  0  0  0  0  0  0  0  0  0  0  0
    2.0517   -3.2134    2.0180 H   0  0  0  0  0  0  0  0  0  0  0  0
    3.3488   -3.8339    0.9541 H   0  0  0  0  0  0  0  0  0  0  0  0
    4.8039   -1.9147    1.6910 H   0  0  0  0  0  0  0  0  0  0  0  0
    3.5197   -1.3723    2.7730 H   0  0  0  0  0  0  0  0  0  0  0  0
    4.3121   -2.9299    3.0582 H   0  0  0  0  0  0  0  0  0  0  0  0
    0.8238    1.4786    2.5401 H   0  0  0  0  0  0  0  0  0  0  0  0
   -0.9204    1.0436    2.5104 H   0  0  0  0  0  0  0  0  0  0  0  0
   -4.2679    0.2738    0.8361 H   0  0  0  0  0  0  0  0  0  0  0  0
   -4.5709    1.8893    1.5392 H   0  0  0  0  0  0  0  0  0  0  0  0
   -4.6955    1.1879   -1.4435 H   0  0  0  0  0  0  0  0  0  0  0  0
   -6.0923    1.4707   -0.3909 H   0  0  0  0  0  0  0  0  0  0  0  0
   -4.9692    2.7907   -0.7612 H   0  0  0  0  0  0  0  0  0  0  0  0
   -1.5935   -1.2884   -1.8445 H   0  0  0  0  0  0  0  0  0  0  0  0
   -0.9359   -2.1900   -0.4502 H   0  0  0  0  0  0  0  0  0  0  0  0
   -2.9347   -3.3518   -1.3535 H   0  0  0  0  0  0  0  0  0  0  0  0
   -3.2835   -2.7267    0.2665 H   0  0  0  0  0  0  0  0  0  0  0  0
   -3.9018   -1.8826   -1.1646 H   0  0  0  0  0  0  0  0  0  0  0  0
  1  2  1  0  0  0  0
  2  3  1  0  0  0  0
  3  4  1  0  0  0  0
  4  5  2  0  0  0  0
  4  6  2  0  0  0  0
  6  7  1  0  0  0  0
  7  8  1  0  0  0  0
  4  9  1  0  0  0  0
  9 10  1  0  0  0  0
 10 11  1  0  0  0  0
 11 12  1  0  0  0  0
 12 13  2  0  0  0  0
 12 14  2  0  0  0  0
 14 15  1  0  0  0  0
 15 16  1  0  0  0  0
 12 17  2  0  0  0  0
 17 18  1  0  0  0  0
 18 19  1  0  0  0  0
  1 20  1  0  0  0  0
  1 21  1  0  0  0  0
  1 22  1  0  0  0  0
  2 23  1  0  0  0  0
  2 24  1  0  0  0  0
  7 25  1  0  0  0  0
  7 26  1  0  0  0  0
  8 27  1  0  0  0  0
  8 28  1  0  0  0  0
  8 29  1  0  0  0  0
 10 30  1  0  0  0  0
 10 31  1  0  0  0  0
 15 32  1  0  0  0  0
 15 33  1  0  0  0  0
 16 34  1  0  0  0  0
 16 35  1  0  0  0  0
 16 36  1  0  0  0  0
 18 37  1  0  0  0  0
 18 38  1  0  0  0  0
 19 39  1  0  0  0  0
 19 40  1  0  0  0  0
 19 41  1  0  0  0  0
M  END
