 xtb: 6.7.1 (edcfbbe)
          04092507313D

 38 37  0     0  0            999 V2000
    3.7813   -4.1410   -1.6679 C   0  0  0  0  0  0  0  0  0  0  0  0
    2.8500   -3.0926   -2.2550 C   0  0  0  0  0  0  0  0  0  0  0  0
    2.7713   -1.9331   -1.4023 O   0  0  0  0  0  0  0  0  0  0  0  0
    1.9147   -1.9480   -0.4029 C   0  0  0  0  0  0  0  0  0  0  0  0
    1.1704   -2.8676   -0.1443 O   0  0  0  0  0  0  0  0  0  0  0  0
    1.9307   -0.6386    0.3616 C   0  0  0  0  0  0  0  0  0  0  0  0
    1.2640    0.4504   -0.4806 C   0  0  0  0  0  0  0  0  0  0  0  0
    1.8727    0.6480   -1.3699 H   0  0  0  0  0  0  0  0  0  0  0  0
    1.1451    1.7534    0.2945 C   0  0  0  0  0  0  0  0  0  0  0  0
    2.0140    2.1390    1.0400 O   0  0  0  0  0  0  0  0  0  0  0  0
    0.0456    2.4216    0.0112 O   0  0  0  0  0  0  0  0  0  0  0  0
   -0.1372    3.6931    0.6697 C   0  0  0  0  0  0  0  0  0  0  0  0
   -1.2972    4.4117    0.0127 C   0  0  0  0  0  0  0  0  0  0  0  0
   -0.3370   -0.0854   -1.1665 S   0  0  0  0  0  0  0  0  0  0  0  0
   -1.6090    0.1367    0.5255 P   0  0  0  0  0  0  0  0  0  0  0  0
   -0.8386    0.4082    2.3075 S   0  0  0  0  0  0  0  0  0  0  0  0
   -2.6562    1.2559    0.1504 O   0  0  0  0  0  0  0  0  0  0  0  0
   -3.4132    1.2151   -1.0771 C   0  0  0  0  0  0  0  0  0  0  0  0
   -2.5264   -1.1719    0.4104 O   0  0  0  0  0  0  0  0  0  0  0  0
   -2.0460   -2.4562    0.8210 C   0  0  0  0  0  0  0  0  0  0  0  0
    3.3822   -4.5115   -0.7263 H   0  0  0  0  0  0  0  0  0  0  0  0
    3.8710   -4.9697   -2.3624 H   0  0  0  0  0  0  0  0  0  0  0  0
    4.7644   -3.7130   -1.4915 H   0  0  0  0  0  0  0  0  0  0  0  0
    1.8423   -3.4974   -2.3838 H   0  0  0  0  0  0  0  0  0  0  0  0
    3.2301   -2.7069   -3.2008 H   0  0  0  0  0  0  0  0  0  0  0  0
    2.9563   -0.3344    0.5713 H   0  0  0  0  0  0  0  0  0  0  0  0
    1.3940   -0.7714    1.3030 H   0  0  0  0  0  0  0  0  0  0  0  0
   -0.3287    3.4928    1.7291 H   0  0  0  0  0  0  0  0  0  0  0  0
    0.7998    4.2516    0.5849 H   0  0  0  0  0  0  0  0  0  0  0  0
   -1.1080    4.5351   -1.0495 H   0  0  0  0  0  0  0  0  0  0  0  0
   -2.2091    3.8387    0.1498 H   0  0  0  0  0  0  0  0  0  0  0  0
   -1.4149    5.3866    0.4737 H   0  0  0  0  0  0  0  0  0  0  0  0
   -4.0036    2.1276   -1.0794 H   0  0  0  0  0  0  0  0  0  0  0  0
   -4.0573    0.3383   -1.0861 H   0  0  0  0  0  0  0  0  0  0  0  0
   -2.7345    1.1907   -1.9294 H   0  0  0  0  0  0  0  0  0  0  0  0
   -1.1611   -2.7424    0.2503 H   0  0  0  0  0  0  0  0  0  0  0  0
   -2.8629   -3.1470    0.6315 H   0  0  0  0  0  0  0  0  0  0  0  0
   -1.7980   -2.4377    1.8830 H   0  0  0  0  0  0  0  0  0  0  0  0
  1  2  1  0  0  0  0
  2  3  1  0  0  0  0
  3  4  1  0  0  0  0
  4  5  2  0  0  0  0
  4  6  1  0  0  0  0
  6  7  1  0  0  0  0
  7  8  1  0  0  0  0
  7  9  1  0  0  0  0
  9 10  2  0  0  0  0
  9 11  1  0  0  0  0
 11 12  1  0  0  0  0
 12 13  1  0  0  0  0
  7 14  1  0  0  0  0
 14 15  1  0  0  0  0
 15 16  2  0  0  0  0
 15 17  2  0  0  0  0
 17 18  1  0  0  0  0
 15 19  1  0  0  0  0
 19 20  1  0  0  0  0
  1 21  1  0  0  0  0
  1 22  1  0  0  0  0
  1 23  1  0  0  0  0
  2 24  1  0  0  0  0
  2 25  1  0  0  0  0
  6 26  1  0  0  0  0
  6 27  1  0  0  0  0
 12 28  1  0  0  0  0
 12 29  1  0  0  0  0
 13 30  1  0  0  0  0
 13 31  1  0  0  0  0
 13 32  1  0  0  0  0
 18 33  1  0  0  0  0
 18 34  1  0  0  0  0
 18 35  1  0  0  0  0
 20 36  1  0  0  0  0
 20 37  1  0  0  0  0
 20 38  1  0  0  0  0
M  END
