 xtb: 6.7.1 (edcfbbe)
          04032520463D

 16 16  0     0  0            999 V2000
   -1.0478   -2.1832   -0.0000 C   0  0  0  0  0  0  0  0  0  0  0  0
   -0.1917   -0.9576    0.0000 C   0  0  0  0  0  0  0  0  0  0  0  0
    1.1930   -1.0500   -0.0000 C   0  0  0  0  0  0  0  0  0  0  0  0
    1.9966    0.0847    0.0000 C   0  0  0  0  0  0  0  0  0  0  0  0
    1.4046    1.3451    0.0000 C   0  0  0  0  0  0  0  0  0  0  0  0
    0.0288    1.4568   -0.0000 C   0  0  0  0  0  0  0  0  0  0  0  0
   -0.7532    0.3152    0.0000 C   0  0  0  0  0  0  0  0  0  0  0  0
   -2.4902    0.4918    0.0000 Cl  0  0  0  0  0  0  0  0  0  0  0  0
    3.3500    0.0150    0.0000 O   0  0  0  0  0  0  0  0  0  0  0  0
   -0.4383   -3.0813    0.0009 H   0  0  0  0  0  0  0  0  0  0  0  0
   -1.6925   -2.1893    0.8774 H   0  0  0  0  0  0  0  0  0  0  0  0
   -1.6912   -2.1903   -0.8783 H   0  0  0  0  0  0  0  0  0  0  0  0
    1.6482   -2.0295    0.0000 H   0  0  0  0  0  0  0  0  0  0  0  0
    2.0335    2.2198    0.0001 H   0  0  0  0  0  0  0  0  0  0  0  0
   -0.4377    2.4287   -0.0001 H   0  0  0  0  0  0  0  0  0  0  0  0
    3.6486   -0.9076   -0.0000 H   0  0  0  0  0  0  0  0  0  0  0  0
  1  2  1  0  0  0  0
  2  3  4  0  0  0  0
  3  4  4  0  0  0  0
  4  5  4  0  0  0  0
  5  6  4  0  0  0  0
  2  7  4  0  0  0  0
  6  7  4  0  0  0  0
  7  8  1  0  0  0  0
  4  9  1  0  0  0  0
  1 10  1  0  0  0  0
  1 11  1  0  0  0  0
  1 12  1  0  0  0  0
  3 13  1  0  0  0  0
  5 14  1  0  0  0  0
  6 15  1  0  0  0  0
  9 16  1  0  0  0  0
M  END
