 xtb: 6.7.1 (edcfbbe)
          04092505213D

 41 40  0     0  0            999 V2000
    3.8487   -0.2679   -2.8034 C   0  0  0  0  0  0  0  0  0  0  0  0
    4.3701   -0.8592   -1.5083 C   0  0  0  0  0  0  0  0  0  0  0  0
    3.3165   -1.0609   -0.5504 O   0  0  0  0  0  0  0  0  0  0  0  0
    2.6589    0.1582    0.2193 P   0  0  0  0  0  0  0  0  0  0  0  0
    3.8288    1.6754    0.6178 S   0  0  0  0  0  0  0  0  0  0  0  0
    2.1041   -0.7020    1.4308 O   0  0  0  0  0  0  0  0  0  0  0  0
    1.4307   -0.0719    2.5382 C   0  0  0  0  0  0  0  0  0  0  0  0
    2.3947    0.1751    3.6816 C   0  0  0  0  0  0  0  0  0  0  0  0
    0.9112    0.6774   -0.8927 S   0  0  0  0  0  0  0  0  0  0  0  0
    0.1925   -0.9934   -0.9943 C   0  0  0  0  0  0  0  0  0  0  0  0
   -1.0398   -1.3129    0.2879 S   0  0  0  0  0  0  0  0  0  0  0  0
   -2.4993    0.0617   -0.4499 P   0  0  0  0  0  0  0  0  0  0  0  0
   -2.5782    0.2748   -2.3904 S   0  0  0  0  0  0  0  0  0  0  0  0
   -2.1802    1.4238    0.2807 O   0  0  0  0  0  0  0  0  0  0  0  0
   -2.1216    1.5751    1.7195 C   0  0  0  0  0  0  0  0  0  0  0  0
   -3.4468    2.0590    2.2716 C   0  0  0  0  0  0  0  0  0  0  0  0
   -3.8458   -0.4068    0.2541 O   0  0  0  0  0  0  0  0  0  0  0  0
   -4.7227   -1.3871   -0.3319 C   0  0  0  0  0  0  0  0  0  0  0  0
   -4.0791   -2.7547   -0.4303 C   0  0  0  0  0  0  0  0  0  0  0  0
    3.0574   -0.8884   -3.2165 H   0  0  0  0  0  0  0  0  0  0  0  0
    3.4543    0.7320   -2.6233 H   0  0  0  0  0  0  0  0  0  0  0  0
    4.6610   -0.2002   -3.5200 H   0  0  0  0  0  0  0  0  0  0  0  0
    5.1261   -0.2036   -1.0642 H   0  0  0  0  0  0  0  0  0  0  0  0
    4.7859   -1.8566   -1.6581 H   0  0  0  0  0  0  0  0  0  0  0  0
    0.9788    0.8677    2.2014 H   0  0  0  0  0  0  0  0  0  0  0  0
    0.6451   -0.7760    2.8215 H   0  0  0  0  0  0  0  0  0  0  0  0
    2.8642   -0.7581    3.9784 H   0  0  0  0  0  0  0  0  0  0  0  0
    3.1691    0.8749    3.3745 H   0  0  0  0  0  0  0  0  0  0  0  0
    1.8528    0.5917    4.5244 H   0  0  0  0  0  0  0  0  0  0  0  0
    0.9782   -1.7362   -0.8779 H   0  0  0  0  0  0  0  0  0  0  0  0
   -0.2894   -1.0612   -1.9696 H   0  0  0  0  0  0  0  0  0  0  0  0
   -1.8349    0.6182    2.1655 H   0  0  0  0  0  0  0  0  0  0  0  0
   -1.3327    2.3129    1.8813 H   0  0  0  0  0  0  0  0  0  0  0  0
   -4.2190    1.3122    2.1093 H   0  0  0  0  0  0  0  0  0  0  0  0
   -3.3402    2.2405    3.3366 H   0  0  0  0  0  0  0  0  0  0  0  0
   -3.7405    2.9814    1.7782 H   0  0  0  0  0  0  0  0  0  0  0  0
   -5.5854   -1.3954    0.3356 H   0  0  0  0  0  0  0  0  0  0  0  0
   -5.0215   -1.0311   -1.3224 H   0  0  0  0  0  0  0  0  0  0  0  0
   -3.6770   -3.0563    0.5336 H   0  0  0  0  0  0  0  0  0  0  0  0
   -4.8228   -3.4762   -0.7530 H   0  0  0  0  0  0  0  0  0  0  0  0
   -3.2710   -2.7341   -1.1598 H   0  0  0  0  0  0  0  0  0  0  0  0
  1  2  1  0  0  0  0
  2  3  1  0  0  0  0
  3  4  2  0  0  0  0
  4  5  2  0  0  0  0
  4  6  2  0  0  0  0
  6  7  1  0  0  0  0
  7  8  1  0  0  0  0
  4  9  1  0  0  0  0
  9 10  1  0  0  0  0
 10 11  1  0  0  0  0
 11 12  1  0  0  0  0
 12 13  2  0  0  0  0
 12 14  2  0  0  0  0
 14 15  1  0  0  0  0
 15 16  1  0  0  0  0
 12 17  2  0  0  0  0
 17 18  1  0  0  0  0
 18 19  1  0  0  0  0
  1 20  1  0  0  0  0
  1 21  1  0  0  0  0
  1 22  1  0  0  0  0
  2 23  1  0  0  0  0
  2 24  1  0  0  0  0
  7 25  1  0  0  0  0
  7 26  1  0  0  0  0
  8 27  1  0  0  0  0
  8 28  1  0  0  0  0
  8 29  1  0  0  0  0
 10 30  1  0  0  0  0
 10 31  1  0  0  0  0
 15 32  1  0  0  0  0
 15 33  1  0  0  0  0
 16 34  1  0  0  0  0
 16 35  1  0  0  0  0
 16 36  1  0  0  0  0
 18 37  1  0  0  0  0
 18 38  1  0  0  0  0
 19 39  1  0  0  0  0
 19 40  1  0  0  0  0
 19 41  1  0  0  0  0
M  END
