 xtb: 6.7.1 (edcfbbe)
          04092505213D

 41 40  0     0  0            999 V2000
    4.8653   -1.4255   -1.5797 C   0  0  0  0  0  0  0  0  0  0  0  0
    4.8219   -0.1022   -0.8441 C   0  0  0  0  0  0  0  0  0  0  0  0
    3.7569   -0.0631    0.1217 O   0  0  0  0  0  0  0  0  0  0  0  0
    2.2330    0.0363   -0.3076 P   0  0  0  0  0  0  0  0  0  0  0  0
    1.8955    1.1520   -1.8925 S   0  0  0  0  0  0  0  0  0  0  0  0
    1.5279    0.3965    1.0656 O   0  0  0  0  0  0  0  0  0  0  0  0
    1.9979    1.4088    1.9836 C   0  0  0  0  0  0  0  0  0  0  0  0
    2.1351    2.7668    1.3299 C   0  0  0  0  0  0  0  0  0  0  0  0
    1.5771   -1.9611   -0.5176 S   0  0  0  0  0  0  0  0  0  0  0  0
   -0.1363   -1.6166   -0.9901 C   0  0  0  0  0  0  0  0  0  0  0  0
   -1.2520   -1.6313    0.4505 S   0  0  0  0  0  0  0  0  0  0  0  0
   -2.2661    0.2110    0.1011 P   0  0  0  0  0  0  0  0  0  0  0  0
   -1.2165    1.8390   -0.1504 S   0  0  0  0  0  0  0  0  0  0  0  0
   -3.3151    0.2584    1.2941 O   0  0  0  0  0  0  0  0  0  0  0  0
   -2.9963    0.8665    2.5592 C   0  0  0  0  0  0  0  0  0  0  0  0
   -1.9270    0.0977    3.3076 C   0  0  0  0  0  0  0  0  0  0  0  0
   -3.1536   -0.0803   -1.1715 O   0  0  0  0  0  0  0  0  0  0  0  0
   -4.1192   -1.1585   -1.2610 C   0  0  0  0  0  0  0  0  0  0  0  0
   -5.4999   -0.6871   -0.8536 C   0  0  0  0  0  0  0  0  0  0  0  0
    4.8903   -2.2502   -0.8723 H   0  0  0  0  0  0  0  0  0  0  0  0
    3.9812   -1.5295   -2.2071 H   0  0  0  0  0  0  0  0  0  0  0  0
    5.7497   -1.4590   -2.2076 H   0  0  0  0  0  0  0  0  0  0  0  0
    4.6821    0.7249   -1.5479 H   0  0  0  0  0  0  0  0  0  0  0  0
    5.7217    0.0606   -0.2493 H   0  0  0  0  0  0  0  0  0  0  0  0
    1.2348    1.4210    2.7638 H   0  0  0  0  0  0  0  0  0  0  0  0
    2.9511    1.0711    2.3958 H   0  0  0  0  0  0  0  0  0  0  0  0
    1.1934    3.0563    0.8663 H   0  0  0  0  0  0  0  0  0  0  0  0
    2.4105    3.5036    2.0776 H   0  0  0  0  0  0  0  0  0  0  0  0
    2.9023    2.7365    0.5567 H   0  0  0  0  0  0  0  0  0  0  0  0
   -0.4401   -2.4091   -1.6687 H   0  0  0  0  0  0  0  0  0  0  0  0
   -0.1840   -0.6368   -1.4736 H   0  0  0  0  0  0  0  0  0  0  0  0
   -2.6734    1.8957    2.3732 H   0  0  0  0  0  0  0  0  0  0  0  0
   -3.9453    0.8651    3.0971 H   0  0  0  0  0  0  0  0  0  0  0  0
   -0.9840    0.1522    2.7644 H   0  0  0  0  0  0  0  0  0  0  0  0
   -1.7940    0.5328    4.2929 H   0  0  0  0  0  0  0  0  0  0  0  0
   -2.2100   -0.9473    3.4074 H   0  0  0  0  0  0  0  0  0  0  0  0
   -4.0946   -1.4525   -2.3120 H   0  0  0  0  0  0  0  0  0  0  0  0
   -3.7825   -1.9874   -0.6321 H   0  0  0  0  0  0  0  0  0  0  0  0
   -6.2102   -1.4914   -1.0182 H   0  0  0  0  0  0  0  0  0  0  0  0
   -5.5100   -0.4084    0.1964 H   0  0  0  0  0  0  0  0  0  0  0  0
   -5.7896    0.1749   -1.4484 H   0  0  0  0  0  0  0  0  0  0  0  0
  1  2  1  0  0  0  0
  2  3  1  0  0  0  0
  3  4  2  0  0  0  0
  4  5  2  0  0  0  0
  4  6  2  0  0  0  0
  6  7  1  0  0  0  0
  7  8  1  0  0  0  0
  4  9  1  0  0  0  0
  9 10  1  0  0  0  0
 10 11  1  0  0  0  0
 11 12  1  0  0  0  0
 12 13  2  0  0  0  0
 12 14  2  0  0  0  0
 14 15  1  0  0  0  0
 15 16  1  0  0  0  0
 12 17  2  0  0  0  0
 17 18  1  0  0  0  0
 18 19  1  0  0  0  0
  1 20  1  0  0  0  0
  1 21  1  0  0  0  0
  1 22  1  0  0  0  0
  2 23  1  0  0  0  0
  2 24  1  0  0  0  0
  7 25  1  0  0  0  0
  7 26  1  0  0  0  0
  8 27  1  0  0  0  0
  8 28  1  0  0  0  0
  8 29  1  0  0  0  0
 10 30  1  0  0  0  0
 10 31  1  0  0  0  0
 15 32  1  0  0  0  0
 15 33  1  0  0  0  0
 16 34  1  0  0  0  0
 16 35  1  0  0  0  0
 16 36  1  0  0  0  0
 18 37  1  0  0  0  0
 18 38  1  0  0  0  0
 19 39  1  0  0  0  0
 19 40  1  0  0  0  0
 19 41  1  0  0  0  0
M  END
