 xtb: 6.7.1 (edcfbbe)
          04092507313D

 38 37  0     0  0            999 V2000
    4.1971   -2.4623    0.9054 C   0  0  0  0  0  0  0  0  0  0  0  0
    2.7221   -2.2659    0.6165 C   0  0  0  0  0  0  0  0  0  0  0  0
    2.5941   -1.2198   -0.3668 O   0  0  0  0  0  0  0  0  0  0  0  0
    1.4858   -1.1375   -1.0663 C   0  0  0  0  0  0  0  0  0  0  0  0
    0.5307   -1.8800   -0.9331 O   0  0  0  0  0  0  0  0  0  0  0  0
    1.5276    0.0023   -2.0619 C   0  0  0  0  0  0  0  0  0  0  0  0
    0.4013    1.0006   -1.7787 C   0  0  0  0  0  0  0  0  0  0  0  0
    0.3952    1.7715   -2.5542 H   0  0  0  0  0  0  0  0  0  0  0  0
    0.5427    1.6706   -0.4255 C   0  0  0  0  0  0  0  0  0  0  0  0
   -0.3944    1.7544    0.3492 O   0  0  0  0  0  0  0  0  0  0  0  0
    1.7461    2.1060   -0.1992 O   0  0  0  0  0  0  0  0  0  0  0  0
    2.0232    2.7455    1.0680 C   0  0  0  0  0  0  0  0  0  0  0  0
    1.6265    4.2115    1.0343 C   0  0  0  0  0  0  0  0  0  0  0  0
   -1.2640    0.2507   -1.8469 S   0  0  0  0  0  0  0  0  0  0  0  0
   -1.6122   -0.3783    0.1463 P   0  0  0  0  0  0  0  0  0  0  0  0
   -0.4464   -0.7687    1.6930 S   0  0  0  0  0  0  0  0  0  0  0  0
   -2.9074    0.4547    0.6029 O   0  0  0  0  0  0  0  0  0  0  0  0
   -2.9313    1.5071    1.5638 C   0  0  0  0  0  0  0  0  0  0  0  0
   -2.3633   -1.6917   -0.3805 O   0  0  0  0  0  0  0  0  0  0  0  0
   -2.9415   -2.6448    0.5117 C   0  0  0  0  0  0  0  0  0  0  0  0
    4.3112   -3.2348    1.6582 H   0  0  0  0  0  0  0  0  0  0  0  0
    4.7190   -2.7614    0.0012 H   0  0  0  0  0  0  0  0  0  0  0  0
    4.6283   -1.5367    1.2735 H   0  0  0  0  0  0  0  0  0  0  0  0
    2.1673   -1.9584    1.5090 H   0  0  0  0  0  0  0  0  0  0  0  0
    2.2535   -3.1715    0.2186 H   0  0  0  0  0  0  0  0  0  0  0  0
    1.3767   -0.4112   -3.0594 H   0  0  0  0  0  0  0  0  0  0  0  0
    2.4928    0.5031   -1.9936 H   0  0  0  0  0  0  0  0  0  0  0  0
    1.4853    2.2073    1.8536 H   0  0  0  0  0  0  0  0  0  0  0  0
    3.0989    2.6246    1.1924 H   0  0  0  0  0  0  0  0  0  0  0  0
    2.1321    4.7176    0.2169 H   0  0  0  0  0  0  0  0  0  0  0  0
    0.5512    4.3087    0.9038 H   0  0  0  0  0  0  0  0  0  0  0  0
    1.9083    4.6768    1.9729 H   0  0  0  0  0  0  0  0  0  0  0  0
   -3.9275    1.4889    1.9999 H   0  0  0  0  0  0  0  0  0  0  0  0
   -2.7403    2.4576    1.0698 H   0  0  0  0  0  0  0  0  0  0  0  0
   -2.1733    1.3319    2.3292 H   0  0  0  0  0  0  0  0  0  0  0  0
   -3.8750   -2.2555    0.9185 H   0  0  0  0  0  0  0  0  0  0  0  0
   -2.2475   -2.8682    1.3253 H   0  0  0  0  0  0  0  0  0  0  0  0
   -3.1217   -3.5350   -0.0857 H   0  0  0  0  0  0  0  0  0  0  0  0
  1  2  1  0  0  0  0
  2  3  1  0  0  0  0
  3  4  4  0  0  0  0
  4  5  2  0  0  0  0
  4  6  1  0  0  0  0
  6  7  1  0  0  0  0
  7  8  1  0  0  0  0
  7  9  1  0  0  0  0
  9 10  2  0  0  0  0
  9 11  4  0  0  0  0
 11 12  1  0  0  0  0
 12 13  1  0  0  0  0
  7 14  1  0  0  0  0
 14 15  1  0  0  0  0
 15 16  2  0  0  0  0
 15 17  1  0  0  0  0
 17 18  1  0  0  0  0
 15 19  1  0  0  0  0
 19 20  1  0  0  0  0
  1 21  1  0  0  0  0
  1 22  1  0  0  0  0
  1 23  1  0  0  0  0
  2 24  1  0  0  0  0
  2 25  1  0  0  0  0
  6 26  1  0  0  0  0
  6 27  1  0  0  0  0
 12 28  1  0  0  0  0
 12 29  1  0  0  0  0
 13 30  1  0  0  0  0
 13 31  1  0  0  0  0
 13 32  1  0  0  0  0
 18 33  1  0  0  0  0
 18 34  1  0  0  0  0
 18 35  1  0  0  0  0
 20 36  1  0  0  0  0
 20 37  1  0  0  0  0
 20 38  1  0  0  0  0
M  END
