 xtb: 6.7.1 (edcfbbe)
          04092505203D

 41 40  0     0  0            999 V2000
    2.6990   -1.1314   -2.5932 C   0  0  0  0  0  0  0  0  0  0  0  0
    2.8914    0.2383   -1.9741 C   0  0  0  0  0  0  0  0  0  0  0  0
    3.1683    0.1280   -0.5653 O   0  0  0  0  0  0  0  0  0  0  0  0
    2.1124    0.2901    0.6054 P   0  0  0  0  0  0  0  0  0  0  0  0
    1.1395    1.9841    0.7257 S   0  0  0  0  0  0  0  0  0  0  0  0
    3.0155    0.1270    1.8880 O   0  0  0  0  0  0  0  0  0  0  0  0
    3.8774   -1.0123    2.1336 C   0  0  0  0  0  0  0  0  0  0  0  0
    5.2962   -0.7249    1.6875 C   0  0  0  0  0  0  0  0  0  0  0  0
    0.9367   -1.4852    0.5575 S   0  0  0  0  0  0  0  0  0  0  0  0
   -0.4478   -0.8767    1.5731 C   0  0  0  0  0  0  0  0  0  0  0  0
   -2.0693   -1.2095    0.8486 S   0  0  0  0  0  0  0  0  0  0  0  0
   -2.0969    0.2688   -0.6905 P   0  0  0  0  0  0  0  0  0  0  0  0
   -0.6615    0.2466   -2.0174 S   0  0  0  0  0  0  0  0  0  0  0  0
   -2.1403    1.6892   -0.0133 O   0  0  0  0  0  0  0  0  0  0  0  0
   -3.1574    2.1683    0.8995 C   0  0  0  0  0  0  0  0  0  0  0  0
   -2.7072    2.0258    2.3407 C   0  0  0  0  0  0  0  0  0  0  0  0
   -3.5803    0.1243   -1.2421 O   0  0  0  0  0  0  0  0  0  0  0  0
   -4.2155   -1.1161   -1.6082 C   0  0  0  0  0  0  0  0  0  0  0  0
   -3.3890   -1.9377   -2.5743 C   0  0  0  0  0  0  0  0  0  0  0  0
    2.6002   -1.0188   -3.6677 H   0  0  0  0  0  0  0  0  0  0  0  0
    3.5504   -1.7678   -2.3701 H   0  0  0  0  0  0  0  0  0  0  0  0
    1.7925   -1.5948   -2.2108 H   0  0  0  0  0  0  0  0  0  0  0  0
    2.0080    0.8645   -2.1269 H   0  0  0  0  0  0  0  0  0  0  0  0
    3.7685    0.7417   -2.3854 H   0  0  0  0  0  0  0  0  0  0  0  0
    3.8245   -1.1616    3.2135 H   0  0  0  0  0  0  0  0  0  0  0  0
    3.4665   -1.8846    1.6173 H   0  0  0  0  0  0  0  0  0  0  0  0
    5.6668    0.1695    2.1807 H   0  0  0  0  0  0  0  0  0  0  0  0
    5.9278   -1.5679    1.9501 H   0  0  0  0  0  0  0  0  0  0  0  0
    5.3313   -0.5704    0.6126 H   0  0  0  0  0  0  0  0  0  0  0  0
   -0.3184    0.2010    1.7064 H   0  0  0  0  0  0  0  0  0  0  0  0
   -0.4385   -1.4034    2.5237 H   0  0  0  0  0  0  0  0  0  0  0  0
   -3.2754    3.2187    0.6286 H   0  0  0  0  0  0  0  0  0  0  0  0
   -4.0885    1.6306    0.7111 H   0  0  0  0  0  0  0  0  0  0  0  0
   -2.6973    0.9819    2.6450 H   0  0  0  0  0  0  0  0  0  0  0  0
   -1.7081    2.4421    2.4544 H   0  0  0  0  0  0  0  0  0  0  0  0
   -3.3932    2.5720    2.9803 H   0  0  0  0  0  0  0  0  0  0  0  0
   -4.4124   -1.6790   -0.6916 H   0  0  0  0  0  0  0  0  0  0  0  0
   -5.1569   -0.7966   -2.0588 H   0  0  0  0  0  0  0  0  0  0  0  0
   -3.1419   -1.3516   -3.4565 H   0  0  0  0  0  0  0  0  0  0  0  0
   -2.4598   -2.2522   -2.1007 H   0  0  0  0  0  0  0  0  0  0  0  0
   -3.9507   -2.8176   -2.8709 H   0  0  0  0  0  0  0  0  0  0  0  0
  1  2  1  0  0  0  0
  2  3  1  0  0  0  0
  3  4  2  0  0  0  0
  4  5  2  0  0  0  0
  4  6  2  0  0  0  0
  6  7  1  0  0  0  0
  7  8  1  0  0  0  0
  4  9  1  0  0  0  0
  9 10  1  0  0  0  0
 10 11  1  0  0  0  0
 11 12  1  0  0  0  0
 12 13  2  0  0  0  0
 12 14  2  0  0  0  0
 14 15  1  0  0  0  0
 15 16  1  0  0  0  0
 12 17  2  0  0  0  0
 17 18  1  0  0  0  0
 18 19  1  0  0  0  0
  1 20  1  0  0  0  0
  1 21  1  0  0  0  0
  1 22  1  0  0  0  0
  2 23  1  0  0  0  0
  2 24  1  0  0  0  0
  7 25  1  0  0  0  0
  7 26  1  0  0  0  0
  8 27  1  0  0  0  0
  8 28  1  0  0  0  0
  8 29  1  0  0  0  0
 10 30  1  0  0  0  0
 10 31  1  0  0  0  0
 15 32  1  0  0  0  0
 15 33  1  0  0  0  0
 16 34  1  0  0  0  0
 16 35  1  0  0  0  0
 16 36  1  0  0  0  0
 18 37  1  0  0  0  0
 18 38  1  0  0  0  0
 19 39  1  0  0  0  0
 19 40  1  0  0  0  0
 19 41  1  0  0  0  0
M  END
