 xtb: 6.7.1 (edcfbbe)
          04092505213D

 41 40  0     0  0            999 V2000
    2.5497    0.5699   -2.7009 C   0  0  0  0  0  0  0  0  0  0  0  0
    1.9233   -0.7137   -2.1937 C   0  0  0  0  0  0  0  0  0  0  0  0
    2.5166   -1.1454   -0.9571 O   0  0  0  0  0  0  0  0  0  0  0  0
    2.1234   -0.6145    0.4875 P   0  0  0  0  0  0  0  0  0  0  0  0
    2.3837    1.2901    0.8993 S   0  0  0  0  0  0  0  0  0  0  0  0
    2.9763   -1.5872    1.3995 O   0  0  0  0  0  0  0  0  0  0  0  0
    4.2898   -1.2371    1.8789 C   0  0  0  0  0  0  0  0  0  0  0  0
    5.3017   -1.2034    0.7533 C   0  0  0  0  0  0  0  0  0  0  0  0
    0.1999   -1.4327    0.8077 S   0  0  0  0  0  0  0  0  0  0  0  0
   -0.4529   -0.1591    1.9403 C   0  0  0  0  0  0  0  0  0  0  0  0
   -2.2353    0.0821    1.7472 S   0  0  0  0  0  0  0  0  0  0  0  0
   -2.2729    0.5598   -0.3026 P   0  0  0  0  0  0  0  0  0  0  0  0
   -0.7652    1.5452   -1.0922 S   0  0  0  0  0  0  0  0  0  0  0  0
   -3.6834    1.2615   -0.5268 O   0  0  0  0  0  0  0  0  0  0  0  0
   -3.8729    2.6830   -0.4202 C   0  0  0  0  0  0  0  0  0  0  0  0
   -3.6679    3.1813    0.9958 C   0  0  0  0  0  0  0  0  0  0  0  0
   -2.5493   -0.8795   -0.8941 O   0  0  0  0  0  0  0  0  0  0  0  0
   -2.3723   -1.2174   -2.2879 C   0  0  0  0  0  0  0  0  0  0  0  0
   -1.8177   -2.6256   -2.3692 C   0  0  0  0  0  0  0  0  0  0  0  0
    2.3200    1.3933   -2.0271 H   0  0  0  0  0  0  0  0  0  0  0  0
    3.6282    0.4610   -2.7738 H   0  0  0  0  0  0  0  0  0  0  0  0
    2.1426    0.8022   -3.6797 H   0  0  0  0  0  0  0  0  0  0  0  0
    2.1066   -1.5443   -2.8780 H   0  0  0  0  0  0  0  0  0  0  0  0
    0.8469   -0.5832   -2.0523 H   0  0  0  0  0  0  0  0  0  0  0  0
    4.2302   -0.2622    2.3736 H   0  0  0  0  0  0  0  0  0  0  0  0
    4.5172   -2.0139    2.6097 H   0  0  0  0  0  0  0  0  0  0  0  0
    5.2963   -2.1473    0.2149 H   0  0  0  0  0  0  0  0  0  0  0  0
    5.0494   -0.4018    0.0600 H   0  0  0  0  0  0  0  0  0  0  0  0
    6.2913   -1.0214    1.1603 H   0  0  0  0  0  0  0  0  0  0  0  0
    0.0751    0.7777    1.7374 H   0  0  0  0  0  0  0  0  0  0  0  0
   -0.3053   -0.4779    2.9693 H   0  0  0  0  0  0  0  0  0  0  0  0
   -3.1770    3.1761   -1.1067 H   0  0  0  0  0  0  0  0  0  0  0  0
   -4.8988    2.8357   -0.7579 H   0  0  0  0  0  0  0  0  0  0  0  0
   -3.9396    4.2306    1.0511 H   0  0  0  0  0  0  0  0  0  0  0  0
   -4.2798    2.6103    1.6896 H   0  0  0  0  0  0  0  0  0  0  0  0
   -2.6218    3.0732    1.2809 H   0  0  0  0  0  0  0  0  0  0  0  0
   -3.3507   -1.1436   -2.7673 H   0  0  0  0  0  0  0  0  0  0  0  0
   -1.6924   -0.4890   -2.7447 H   0  0  0  0  0  0  0  0  0  0  0  0
   -0.8588   -2.6827   -1.8596 H   0  0  0  0  0  0  0  0  0  0  0  0
   -2.5029   -3.3194   -1.8916 H   0  0  0  0  0  0  0  0  0  0  0  0
   -1.6908   -2.9002   -3.4113 H   0  0  0  0  0  0  0  0  0  0  0  0
  1  2  1  0  0  0  0
  2  3  1  0  0  0  0
  3  4  2  0  0  0  0
  4  5  2  0  0  0  0
  4  6  2  0  0  0  0
  6  7  1  0  0  0  0
  7  8  1  0  0  0  0
  4  9  1  0  0  0  0
  9 10  1  0  0  0  0
 10 11  1  0  0  0  0
 11 12  1  0  0  0  0
 12 13  2  0  0  0  0
 12 14  2  0  0  0  0
 14 15  1  0  0  0  0
 15 16  1  0  0  0  0
 12 17  2  0  0  0  0
 17 18  1  0  0  0  0
 18 19  1  0  0  0  0
  1 20  1  0  0  0  0
  1 21  1  0  0  0  0
  1 22  1  0  0  0  0
  2 23  1  0  0  0  0
  2 24  1  0  0  0  0
  7 25  1  0  0  0  0
  7 26  1  0  0  0  0
  8 27  1  0  0  0  0
  8 28  1  0  0  0  0
  8 29  1  0  0  0  0
 10 30  1  0  0  0  0
 10 31  1  0  0  0  0
 15 32  1  0  0  0  0
 15 33  1  0  0  0  0
 16 34  1  0  0  0  0
 16 35  1  0  0  0  0
 16 36  1  0  0  0  0
 18 37  1  0  0  0  0
 18 38  1  0  0  0  0
 19 39  1  0  0  0  0
 19 40  1  0  0  0  0
 19 41  1  0  0  0  0
M  END
