 xtb: 6.7.1 (edcfbbe)
          04032520133D

 11 11  0     0  0            999 V2000
    1.4021   -0.0000    0.0001 C   0  0  0  0  0  0  0  0  0  0  0  0
    0.6946   -1.1920   -0.0000 C   0  0  0  0  0  0  0  0  0  0  0  0
   -0.6909   -1.1340    0.0000 C   0  0  0  0  0  0  0  0  0  0  0  0
   -1.3749    0.0000    0.0000 N   0  0  0  0  0  0  0  0  0  0  0  0
   -0.6908    1.1340    0.0000 C   0  0  0  0  0  0  0  0  0  0  0  0
    0.6946    1.1920    0.0001 C   0  0  0  0  0  0  0  0  0  0  0  0
    2.4818   -0.0000   -0.0002 H   0  0  0  0  0  0  0  0  0  0  0  0
    1.2022   -2.1433   -0.0004 H   0  0  0  0  0  0  0  0  0  0  0  0
   -1.2888   -2.0356   -0.0003 H   0  0  0  0  0  0  0  0  0  0  0  0
   -1.2887    2.0357   -0.0002 H   0  0  0  0  0  0  0  0  0  0  0  0
    1.2023    2.1432   -0.0011 H   0  0  0  0  0  0  0  0  0  0  0  0
  1  2  4  0  0  0  0
  2  3  4  0  0  0  0
  3  4  4  0  0  0  0
  4  5  4  0  0  0  0
  1  6  4  0  0  0  0
  5  6  4  0  0  0  0
  1  7  1  0  0  0  0
  2  8  1  0  0  0  0
  3  9  1  0  0  0  0
  5 10  1  0  0  0  0
  6 11  1  0  0  0  0
M  END
