 xtb: 6.7.1 (edcfbbe)
          04092505213D

 41 40  0     0  0            999 V2000
    1.0204   -3.2606    0.8926 C   0  0  0  0  0  0  0  0  0  0  0  0
    2.2553   -2.5216    0.4196 C   0  0  0  0  0  0  0  0  0  0  0  0
    2.0691   -1.1105    0.6661 O   0  0  0  0  0  0  0  0  0  0  0  0
    2.6402    0.0383   -0.2867 P   0  0  0  0  0  0  0  0  0  0  0  0
    2.9972   -0.4938   -2.1325 S   0  0  0  0  0  0  0  0  0  0  0  0
    3.9575    0.5748    0.4138 O   0  0  0  0  0  0  0  0  0  0  0  0
    4.0296    0.9191    1.8208 C   0  0  0  0  0  0  0  0  0  0  0  0
    3.8888    2.4148    2.0196 C   0  0  0  0  0  0  0  0  0  0  0  0
    1.1926    1.5432    0.0124 S   0  0  0  0  0  0  0  0  0  0  0  0
    0.0418    0.9713   -1.2663 C   0  0  0  0  0  0  0  0  0  0  0  0
   -0.8490   -0.5327   -0.8201 S   0  0  0  0  0  0  0  0  0  0  0  0
   -2.7269    0.3126   -0.2219 P   0  0  0  0  0  0  0  0  0  0  0  0
   -2.8788    2.2605   -0.3438 S   0  0  0  0  0  0  0  0  0  0  0  0
   -3.0593   -0.2921    1.2112 O   0  0  0  0  0  0  0  0  0  0  0  0
   -2.6631    0.3370    2.4398 C   0  0  0  0  0  0  0  0  0  0  0  0
   -1.1669    0.2582    2.6659 C   0  0  0  0  0  0  0  0  0  0  0  0
   -3.7889   -0.4032   -1.1402 O   0  0  0  0  0  0  0  0  0  0  0  0
   -3.7527   -1.7762   -1.5982 C   0  0  0  0  0  0  0  0  0  0  0  0
   -3.6141   -2.7682   -0.4644 C   0  0  0  0  0  0  0  0  0  0  0  0
    0.1523   -2.9291    0.3295 H   0  0  0  0  0  0  0  0  0  0  0  0
    1.1644   -4.3245    0.7358 H   0  0  0  0  0  0  0  0  0  0  0  0
    0.8552   -3.0722    1.9494 H   0  0  0  0  0  0  0  0  0  0  0  0
    2.4254   -2.6709   -0.6517 H   0  0  0  0  0  0  0  0  0  0  0  0
    3.1448   -2.8381    0.9701 H   0  0  0  0  0  0  0  0  0  0  0  0
    3.2546    0.3713    2.3617 H   0  0  0  0  0  0  0  0  0  0  0  0
    5.0167    0.5719    2.1312 H   0  0  0  0  0  0  0  0  0  0  0  0
    4.6288    2.9405    1.4225 H   0  0  0  0  0  0  0  0  0  0  0  0
    2.8974    2.7504    1.7225 H   0  0  0  0  0  0  0  0  0  0  0  0
    4.0431    2.6484    3.0684 H   0  0  0  0  0  0  0  0  0  0  0  0
    0.6099    0.7581   -2.1718 H   0  0  0  0  0  0  0  0  0  0  0  0
   -0.6756    1.7802   -1.4197 H   0  0  0  0  0  0  0  0  0  0  0  0
   -2.9956    1.3798    2.4219 H   0  0  0  0  0  0  0  0  0  0  0  0
   -3.2145   -0.2145    3.2030 H   0  0  0  0  0  0  0  0  0  0  0  0
   -0.9364    0.6060    3.6677 H   0  0  0  0  0  0  0  0  0  0  0  0
   -0.8199   -0.7657    2.5506 H   0  0  0  0  0  0  0  0  0  0  0  0
   -0.6455    0.8925    1.9505 H   0  0  0  0  0  0  0  0  0  0  0  0
   -4.7034   -1.8884   -2.1214 H   0  0  0  0  0  0  0  0  0  0  0  0
   -2.9261   -1.8768   -2.3065 H   0  0  0  0  0  0  0  0  0  0  0  0
   -4.4071   -2.6224    0.2640 H   0  0  0  0  0  0  0  0  0  0  0  0
   -3.6712   -3.7756   -0.8649 H   0  0  0  0  0  0  0  0  0  0  0  0
   -2.6532   -2.6369    0.0296 H   0  0  0  0  0  0  0  0  0  0  0  0
  1  2  1  0  0  0  0
  2  3  1  0  0  0  0
  3  4  1  0  0  0  0
  4  5  2  0  0  0  0
  4  6  2  0  0  0  0
  6  7  1  0  0  0  0
  7  8  1  0  0  0  0
  4  9  1  0  0  0  0
  9 10  1  0  0  0  0
 10 11  1  0  0  0  0
 11 12  1  0  0  0  0
 12 13  2  0  0  0  0
 12 14  2  0  0  0  0
 14 15  1  0  0  0  0
 15 16  1  0  0  0  0
 12 17  2  0  0  0  0
 17 18  1  0  0  0  0
 18 19  1  0  0  0  0
  1 20  1  0  0  0  0
  1 21  1  0  0  0  0
  1 22  1  0  0  0  0
  2 23  1  0  0  0  0
  2 24  1  0  0  0  0
  7 25  1  0  0  0  0
  7 26  1  0  0  0  0
  8 27  1  0  0  0  0
  8 28  1  0  0  0  0
  8 29  1  0  0  0  0
 10 30  1  0  0  0  0
 10 31  1  0  0  0  0
 15 32  1  0  0  0  0
 15 33  1  0  0  0  0
 16 34  1  0  0  0  0
 16 35  1  0  0  0  0
 16 36  1  0  0  0  0
 18 37  1  0  0  0  0
 18 38  1  0  0  0  0
 19 39  1  0  0  0  0
 19 40  1  0  0  0  0
 19 41  1  0  0  0  0
M  END
