 xtb: 6.7.1 (edcfbbe)
          04092505203D

 41 40  0     0  0            999 V2000
    5.0114   -1.2770   -1.5705 C   0  0  0  0  0  0  0  0  0  0  0  0
    3.6052   -1.8201   -1.7368 C   0  0  0  0  0  0  0  0  0  0  0  0
    2.8400   -1.6955   -0.5221 O   0  0  0  0  0  0  0  0  0  0  0  0
    2.0594   -0.3802   -0.0989 P   0  0  0  0  0  0  0  0  0  0  0  0
    3.1013    1.2450    0.2628 S   0  0  0  0  0  0  0  0  0  0  0  0
    1.2410   -0.9586    1.1236 O   0  0  0  0  0  0  0  0  0  0  0  0
    1.4351   -0.5146    2.4777 C   0  0  0  0  0  0  0  0  0  0  0  0
    2.6270   -1.2097    3.1018 C   0  0  0  0  0  0  0  0  0  0  0  0
    0.6105   -0.2025   -1.6370 S   0  0  0  0  0  0  0  0  0  0  0  0
    0.1064    1.4954   -1.2661 C   0  0  0  0  0  0  0  0  0  0  0  0
   -0.6055    1.6843    0.3947 S   0  0  0  0  0  0  0  0  0  0  0  0
   -2.2506    0.3960    0.1164 P   0  0  0  0  0  0  0  0  0  0  0  0
   -3.0612    0.2944   -1.6688 S   0  0  0  0  0  0  0  0  0  0  0  0
   -3.2745    0.7948    1.2683 O   0  0  0  0  0  0  0  0  0  0  0  0
   -4.3091    1.7757    1.0768 C   0  0  0  0  0  0  0  0  0  0  0  0
   -3.7464    3.1745    0.9286 C   0  0  0  0  0  0  0  0  0  0  0  0
   -1.6451   -0.9390    0.7147 O   0  0  0  0  0  0  0  0  0  0  0  0
   -2.2292   -2.2400    0.4774 C   0  0  0  0  0  0  0  0  0  0  0  0
   -1.3705   -3.0248   -0.4947 C   0  0  0  0  0  0  0  0  0  0  0  0
    5.5129   -1.7814   -0.7492 H   0  0  0  0  0  0  0  0  0  0  0  0
    5.5685   -1.4431   -2.4870 H   0  0  0  0  0  0  0  0  0  0  0  0
    4.9851   -0.2102   -1.3601 H   0  0  0  0  0  0  0  0  0  0  0  0
    3.6163   -2.8940   -1.9330 H   0  0  0  0  0  0  0  0  0  0  0  0
    3.0773   -1.3077   -2.5466 H   0  0  0  0  0  0  0  0  0  0  0  0
    1.5721    0.5722    2.4812 H   0  0  0  0  0  0  0  0  0  0  0  0
    0.5003   -0.7661    2.9812 H   0  0  0  0  0  0  0  0  0  0  0  0
    3.5325   -0.9312    2.5642 H   0  0  0  0  0  0  0  0  0  0  0  0
    2.7218   -0.9050    4.1391 H   0  0  0  0  0  0  0  0  0  0  0  0
    2.5043   -2.2879    3.0479 H   0  0  0  0  0  0  0  0  0  0  0  0
   -0.6341    1.7663   -2.0176 H   0  0  0  0  0  0  0  0  0  0  0  0
    0.9738    2.1541   -1.3015 H   0  0  0  0  0  0  0  0  0  0  0  0
   -4.8876    1.4977    0.1899 H   0  0  0  0  0  0  0  0  0  0  0  0
   -4.9280    1.6814    1.9699 H   0  0  0  0  0  0  0  0  0  0  0  0
   -3.1826    3.2526   -0.0002 H   0  0  0  0  0  0  0  0  0  0  0  0
   -4.5624    3.8896    0.9059 H   0  0  0  0  0  0  0  0  0  0  0  0
   -3.0847    3.4061    1.7595 H   0  0  0  0  0  0  0  0  0  0  0  0
   -2.2649   -2.7188    1.4572 H   0  0  0  0  0  0  0  0  0  0  0  0
   -3.2452   -2.1157    0.0912 H   0  0  0  0  0  0  0  0  0  0  0  0
   -1.3899   -2.5566   -1.4769 H   0  0  0  0  0  0  0  0  0  0  0  0
   -0.3419   -3.0501   -0.1421 H   0  0  0  0  0  0  0  0  0  0  0  0
   -1.7516   -4.0378   -0.5743 H   0  0  0  0  0  0  0  0  0  0  0  0
  1  2  1  0  0  0  0
  2  3  1  0  0  0  0
  3  4  2  0  0  0  0
  4  5  2  0  0  0  0
  4  6  2  0  0  0  0
  6  7  1  0  0  0  0
  7  8  1  0  0  0  0
  4  9  1  0  0  0  0
  9 10  1  0  0  0  0
 10 11  1  0  0  0  0
 11 12  1  0  0  0  0
 12 13  2  0  0  0  0
 12 14  2  0  0  0  0
 14 15  1  0  0  0  0
 15 16  1  0  0  0  0
 12 17  2  0  0  0  0
 17 18  1  0  0  0  0
 18 19  1  0  0  0  0
  1 20  1  0  0  0  0
  1 21  1  0  0  0  0
  1 22  1  0  0  0  0
  2 23  1  0  0  0  0
  2 24  1  0  0  0  0
  7 25  1  0  0  0  0
  7 26  1  0  0  0  0
  8 27  1  0  0  0  0
  8 28  1  0  0  0  0
  8 29  1  0  0  0  0
 10 30  1  0  0  0  0
 10 31  1  0  0  0  0
 15 32  1  0  0  0  0
 15 33  1  0  0  0  0
 16 34  1  0  0  0  0
 16 35  1  0  0  0  0
 16 36  1  0  0  0  0
 18 37  1  0  0  0  0
 18 38  1  0  0  0  0
 19 39  1  0  0  0  0
 19 40  1  0  0  0  0
 19 41  1  0  0  0  0
M  END
