 xtb: 6.7.1 (edcfbbe)
          04092505203D

 41 40  0     0  0            999 V2000
    4.3543    1.9814   -0.2481 C   0  0  0  0  0  0  0  0  0  0  0  0
    3.1520    1.3194   -0.8889 C   0  0  0  0  0  0  0  0  0  0  0  0
    2.0485    1.2510    0.0495 O   0  0  0  0  0  0  0  0  0  0  0  0
    1.7068   -0.0635    0.8481 P   0  0  0  0  0  0  0  0  0  0  0  0
    0.2689    0.1379    2.1559 S   0  0  0  0  0  0  0  0  0  0  0  0
    3.1238   -0.4172    1.4854 O   0  0  0  0  0  0  0  0  0  0  0  0
    3.2803   -1.5581    2.3505 C   0  0  0  0  0  0  0  0  0  0  0  0
    4.6573   -1.4800    2.9780 C   0  0  0  0  0  0  0  0  0  0  0  0
    1.4797   -1.6340   -0.5825 S   0  0  0  0  0  0  0  0  0  0  0  0
   -0.2615   -2.0627   -0.3466 C   0  0  0  0  0  0  0  0  0  0  0  0
   -1.3218   -1.5866   -1.7507 S   0  0  0  0  0  0  0  0  0  0  0  0
   -2.0518    0.2670   -1.0801 P   0  0  0  0  0  0  0  0  0  0  0  0
   -3.3840    1.1248   -2.2278 S   0  0  0  0  0  0  0  0  0  0  0  0
   -0.6797    1.0587   -0.8929 O   0  0  0  0  0  0  0  0  0  0  0  0
   -0.6840    2.5034   -0.8936 C   0  0  0  0  0  0  0  0  0  0  0  0
   -1.4047    3.0740    0.3087 C   0  0  0  0  0  0  0  0  0  0  0  0
   -2.5081    0.0380    0.4288 O   0  0  0  0  0  0  0  0  0  0  0  0
   -3.8601   -0.3042    0.7735 C   0  0  0  0  0  0  0  0  0  0  0  0
   -4.1856   -1.7431    0.4259 C   0  0  0  0  0  0  0  0  0  0  0  0
    4.0853    2.9678    0.1194 H   0  0  0  0  0  0  0  0  0  0  0  0
    4.7128    1.3827    0.5848 H   0  0  0  0  0  0  0  0  0  0  0  0
    5.1425    2.0767   -0.9883 H   0  0  0  0  0  0  0  0  0  0  0  0
    3.3903    0.3093   -1.2335 H   0  0  0  0  0  0  0  0  0  0  0  0
    2.7714    1.9080   -1.7264 H   0  0  0  0  0  0  0  0  0  0  0  0
    2.4908   -1.5298    3.1086 H   0  0  0  0  0  0  0  0  0  0  0  0
    3.1671   -2.4640    1.7482 H   0  0  0  0  0  0  0  0  0  0  0  0
    5.4199   -1.4910    2.2047 H   0  0  0  0  0  0  0  0  0  0  0  0
    4.7530   -0.5656    3.5566 H   0  0  0  0  0  0  0  0  0  0  0  0
    4.7986   -2.3335    3.6327 H   0  0  0  0  0  0  0  0  0  0  0  0
   -0.6219   -1.5818    0.5667 H   0  0  0  0  0  0  0  0  0  0  0  0
   -0.3203   -3.1457   -0.2845 H   0  0  0  0  0  0  0  0  0  0  0  0
    0.3729    2.7692   -0.8871 H   0  0  0  0  0  0  0  0  0  0  0  0
   -1.1537    2.8404   -1.8232 H   0  0  0  0  0  0  0  0  0  0  0  0
   -2.4678    2.8442    0.2496 H   0  0  0  0  0  0  0  0  0  0  0  0
   -1.0035    2.6450    1.2243 H   0  0  0  0  0  0  0  0  0  0  0  0
   -1.2756    4.1515    0.3265 H   0  0  0  0  0  0  0  0  0  0  0  0
   -3.9093   -0.1257    1.8487 H   0  0  0  0  0  0  0  0  0  0  0  0
   -4.5344    0.3805    0.2484 H   0  0  0  0  0  0  0  0  0  0  0  0
   -3.4825   -2.4182    0.9071 H   0  0  0  0  0  0  0  0  0  0  0  0
   -5.1908   -1.9727    0.7643 H   0  0  0  0  0  0  0  0  0  0  0  0
   -4.1347   -1.8864   -0.6532 H   0  0  0  0  0  0  0  0  0  0  0  0
  1  2  1  0  0  0  0
  2  3  1  0  0  0  0
  3  4  2  0  0  0  0
  4  5  2  0  0  0  0
  4  6  2  0  0  0  0
  6  7  1  0  0  0  0
  7  8  1  0  0  0  0
  4  9  1  0  0  0  0
  9 10  1  0  0  0  0
 10 11  1  0  0  0  0
 11 12  1  0  0  0  0
 12 13  2  0  0  0  0
 12 14  1  0  0  0  0
 14 15  1  0  0  0  0
 15 16  1  0  0  0  0
 12 17  2  0  0  0  0
 17 18  1  0  0  0  0
 18 19  1  0  0  0  0
  1 20  1  0  0  0  0
  1 21  1  0  0  0  0
  1 22  1  0  0  0  0
  2 23  1  0  0  0  0
  2 24  1  0  0  0  0
  7 25  1  0  0  0  0
  7 26  1  0  0  0  0
  8 27  1  0  0  0  0
  8 28  1  0  0  0  0
  8 29  1  0  0  0  0
 10 30  1  0  0  0  0
 10 31  1  0  0  0  0
 15 32  1  0  0  0  0
 15 33  1  0  0  0  0
 16 34  1  0  0  0  0
 16 35  1  0  0  0  0
 16 36  1  0  0  0  0
 18 37  1  0  0  0  0
 18 38  1  0  0  0  0
 19 39  1  0  0  0  0
 19 40  1  0  0  0  0
 19 41  1  0  0  0  0
M  END
