 xtb: 6.7.1 (edcfbbe)
          04092507313D

 38 37  0     0  0            999 V2000
    3.3810   -3.1836    0.2803 C   0  0  0  0  0  0  0  0  0  0  0  0
    2.9764   -1.8101    0.7913 C   0  0  0  0  0  0  0  0  0  0  0  0
    2.7084   -0.9071   -0.2979 O   0  0  0  0  0  0  0  0  0  0  0  0
    1.5395   -0.9641   -0.8933 C   0  0  0  0  0  0  0  0  0  0  0  0
    0.6435   -1.7298   -0.5938 O   0  0  0  0  0  0  0  0  0  0  0  0
    1.4172    0.0554   -2.0058 C   0  0  0  0  0  0  0  0  0  0  0  0
    0.2196    0.9718   -1.7647 C   0  0  0  0  0  0  0  0  0  0  0  0
    0.0964    1.6494   -2.6155 H   0  0  0  0  0  0  0  0  0  0  0  0
    0.3215    1.8198   -0.5088 C   0  0  0  0  0  0  0  0  0  0  0  0
   -0.6605    2.2737    0.0472 O   0  0  0  0  0  0  0  0  0  0  0  0
    1.5553    2.0194   -0.1378 O   0  0  0  0  0  0  0  0  0  0  0  0
    1.7887    2.7857    1.0626 C   0  0  0  0  0  0  0  0  0  0  0  0
    3.2810    3.0192    1.1774 C   0  0  0  0  0  0  0  0  0  0  0  0
   -1.3690    0.0706   -1.6919 S   0  0  0  0  0  0  0  0  0  0  0  0
   -1.6637   -0.2835    0.3891 P   0  0  0  0  0  0  0  0  0  0  0  0
   -0.3045   -0.2300    1.8003 S   0  0  0  0  0  0  0  0  0  0  0  0
   -2.8445    0.6806    0.8201 O   0  0  0  0  0  0  0  0  0  0  0  0
   -4.0608    0.8381    0.0703 C   0  0  0  0  0  0  0  0  0  0  0  0
   -2.4861   -1.6573    0.3332 O   0  0  0  0  0  0  0  0  0  0  0  0
   -1.9275   -2.9512    0.1020 C   0  0  0  0  0  0  0  0  0  0  0  0
    4.2385   -3.0980   -0.3816 H   0  0  0  0  0  0  0  0  0  0  0  0
    3.6398   -3.8148    1.1238 H   0  0  0  0  0  0  0  0  0  0  0  0
    2.5563   -3.6408   -0.2615 H   0  0  0  0  0  0  0  0  0  0  0  0
    3.7890   -1.3347    1.3401 H   0  0  0  0  0  0  0  0  0  0  0  0
    2.0846   -1.8669    1.4230 H   0  0  0  0  0  0  0  0  0  0  0  0
    1.2583   -0.4791   -2.9436 H   0  0  0  0  0  0  0  0  0  0  0  0
    2.3321    0.6440   -2.0525 H   0  0  0  0  0  0  0  0  0  0  0  0
    1.2247    3.7204    0.9902 H   0  0  0  0  0  0  0  0  0  0  0  0
    1.3959    2.2079    1.9060 H   0  0  0  0  0  0  0  0  0  0  0  0
    3.6371    3.5949    0.3285 H   0  0  0  0  0  0  0  0  0  0  0  0
    3.4856    3.5637    2.0928 H   0  0  0  0  0  0  0  0  0  0  0  0
    3.8007    2.0663    1.2029 H   0  0  0  0  0  0  0  0  0  0  0  0
   -3.8336    1.1509   -0.9492 H   0  0  0  0  0  0  0  0  0  0  0  0
   -4.6148    1.6129    0.5937 H   0  0  0  0  0  0  0  0  0  0  0  0
   -4.6140   -0.0996    0.0618 H   0  0  0  0  0  0  0  0  0  0  0  0
   -1.0829   -3.1205    0.7690 H   0  0  0  0  0  0  0  0  0  0  0  0
   -1.5934   -3.0346   -0.9309 H   0  0  0  0  0  0  0  0  0  0  0  0
   -2.7320   -3.6521    0.3111 H   0  0  0  0  0  0  0  0  0  0  0  0
  1  2  1  0  0  0  0
  2  3  1  0  0  0  0
  3  4  4  0  0  0  0
  4  5  2  0  0  0  0
  4  6  1  0  0  0  0
  6  7  1  0  0  0  0
  7  8  1  0  0  0  0
  7  9  1  0  0  0  0
  9 10  2  0  0  0  0
  9 11  4  0  0  0  0
 11 12  1  0  0  0  0
 12 13  1  0  0  0  0
  7 14  1  0  0  0  0
 14 15  1  0  0  0  0
 15 16  2  0  0  0  0
 15 17  2  0  0  0  0
 17 18  1  0  0  0  0
 15 19  1  0  0  0  0
 19 20  1  0  0  0  0
  1 21  1  0  0  0  0
  1 22  1  0  0  0  0
  1 23  1  0  0  0  0
  2 24  1  0  0  0  0
  2 25  1  0  0  0  0
  6 26  1  0  0  0  0
  6 27  1  0  0  0  0
 12 28  1  0  0  0  0
 12 29  1  0  0  0  0
 13 30  1  0  0  0  0
 13 31  1  0  0  0  0
 13 32  1  0  0  0  0
 18 33  1  0  0  0  0
 18 34  1  0  0  0  0
 18 35  1  0  0  0  0
 20 36  1  0  0  0  0
 20 37  1  0  0  0  0
 20 38  1  0  0  0  0
M  END
