 xtb: 6.7.1 (edcfbbe)
          04092505203D

 41 40  0     0  0            999 V2000
    4.0300   -1.3069   -2.3398 C   0  0  0  0  0  0  0  0  0  0  0  0
    4.6125   -1.0868   -0.9585 C   0  0  0  0  0  0  0  0  0  0  0  0
    3.6058   -1.0970    0.0684 O   0  0  0  0  0  0  0  0  0  0  0  0
    2.4982    0.0371    0.1866 P   0  0  0  0  0  0  0  0  0  0  0  0
    3.1341    1.8461   -0.2043 S   0  0  0  0  0  0  0  0  0  0  0  0
    2.0293   -0.0827    1.6869 O   0  0  0  0  0  0  0  0  0  0  0  0
    1.2413   -1.1397    2.2849 C   0  0  0  0  0  0  0  0  0  0  0  0
    1.8060   -2.5192    2.0241 C   0  0  0  0  0  0  0  0  0  0  0  0
    0.8812   -0.6662   -1.0191 S   0  0  0  0  0  0  0  0  0  0  0  0
    0.1063    0.9433   -1.2761 C   0  0  0  0  0  0  0  0  0  0  0  0
   -0.7203    1.5775    0.2118 S   0  0  0  0  0  0  0  0  0  0  0  0
   -2.4095    0.3195    0.0728 P   0  0  0  0  0  0  0  0  0  0  0  0
   -3.1308   -0.0342   -1.7193 S   0  0  0  0  0  0  0  0  0  0  0  0
   -3.4690    0.9205    1.0955 O   0  0  0  0  0  0  0  0  0  0  0  0
   -4.4566    1.8881    0.6998 C   0  0  0  0  0  0  0  0  0  0  0  0
   -3.8348    3.2264    0.3569 C   0  0  0  0  0  0  0  0  0  0  0  0
   -1.8780   -0.9307    0.8886 O   0  0  0  0  0  0  0  0  0  0  0  0
   -2.5386   -2.2197    0.8366 C   0  0  0  0  0  0  0  0  0  0  0  0
   -1.8067   -3.1472   -0.1122 C   0  0  0  0  0  0  0  0  0  0  0  0
    3.4072   -2.1977   -2.3527 H   0  0  0  0  0  0  0  0  0  0  0  0
    3.4247   -0.4495   -2.6300 H   0  0  0  0  0  0  0  0  0  0  0  0
    4.8385   -1.4218   -3.0545 H   0  0  0  0  0  0  0  0  0  0  0  0
    5.1424   -0.1302   -0.9135 H   0  0  0  0  0  0  0  0  0  0  0  0
    5.2840   -1.8971   -0.6710 H   0  0  0  0  0  0  0  0  0  0  0  0
    1.2595   -0.8897    3.3470 H   0  0  0  0  0  0  0  0  0  0  0  0
    0.2184   -1.0554    1.9084 H   0  0  0  0  0  0  0  0  0  0  0  0
    1.7647   -2.7489    0.9608 H   0  0  0  0  0  0  0  0  0  0  0  0
    2.8410   -2.5704    2.3519 H   0  0  0  0  0  0  0  0  0  0  0  0
    1.2189   -3.2511    2.5708 H   0  0  0  0  0  0  0  0  0  0  0  0
   -0.6268    0.8231   -2.0742 H   0  0  0  0  0  0  0  0  0  0  0  0
    0.8713    1.6746   -1.5391 H   0  0  0  0  0  0  0  0  0  0  0  0
   -5.0070    1.4891   -0.1585 H   0  0  0  0  0  0  0  0  0  0  0  0
   -5.1165    1.9590    1.5653 H   0  0  0  0  0  0  0  0  0  0  0  0
   -4.6201    3.9534    0.1766 H   0  0  0  0  0  0  0  0  0  0  0  0
   -3.2035    3.5705    1.1724 H   0  0  0  0  0  0  0  0  0  0  0  0
   -3.2254    3.1351   -0.5417 H   0  0  0  0  0  0  0  0  0  0  0  0
   -2.5111   -2.5877    1.8633 H   0  0  0  0  0  0  0  0  0  0  0  0
   -3.5768   -2.0788    0.5246 H   0  0  0  0  0  0  0  0  0  0  0  0
   -2.2781   -4.1243   -0.0908 H   0  0  0  0  0  0  0  0  0  0  0  0
   -1.8468   -2.7544   -1.1259 H   0  0  0  0  0  0  0  0  0  0  0  0
   -0.7652   -3.2406    0.1809 H   0  0  0  0  0  0  0  0  0  0  0  0
  1  2  1  0  0  0  0
  2  3  1  0  0  0  0
  3  4  2  0  0  0  0
  4  5  2  0  0  0  0
  4  6  2  0  0  0  0
  6  7  1  0  0  0  0
  7  8  1  0  0  0  0
  4  9  1  0  0  0  0
  9 10  1  0  0  0  0
 10 11  1  0  0  0  0
 11 12  1  0  0  0  0
 12 13  2  0  0  0  0
 12 14  2  0  0  0  0
 14 15  1  0  0  0  0
 15 16  1  0  0  0  0
 12 17  2  0  0  0  0
 17 18  1  0  0  0  0
 18 19  1  0  0  0  0
  1 20  1  0  0  0  0
  1 21  1  0  0  0  0
  1 22  1  0  0  0  0
  2 23  1  0  0  0  0
  2 24  1  0  0  0  0
  7 25  1  0  0  0  0
  7 26  1  0  0  0  0
  8 27  1  0  0  0  0
  8 28  1  0  0  0  0
  8 29  1  0  0  0  0
 10 30  1  0  0  0  0
 10 31  1  0  0  0  0
 15 32  1  0  0  0  0
 15 33  1  0  0  0  0
 16 34  1  0  0  0  0
 16 35  1  0  0  0  0
 16 36  1  0  0  0  0
 18 37  1  0  0  0  0
 18 38  1  0  0  0  0
 19 39  1  0  0  0  0
 19 40  1  0  0  0  0
 19 41  1  0  0  0  0
M  END
