 xtb: 6.7.1 (edcfbbe)
          04092507313D

 38 37  0     0  0            999 V2000
    4.2897   -1.4966    1.4686 C   0  0  0  0  0  0  0  0  0  0  0  0
    2.8243   -1.8205    1.2357 C   0  0  0  0  0  0  0  0  0  0  0  0
    2.4373   -1.3819   -0.0804 O   0  0  0  0  0  0  0  0  0  0  0  0
    1.5180   -0.4655   -0.2156 C   0  0  0  0  0  0  0  0  0  0  0  0
    0.9616    0.1213    0.7000 O   0  0  0  0  0  0  0  0  0  0  0  0
    1.2320   -0.1438   -1.6654 C   0  0  0  0  0  0  0  0  0  0  0  0
    0.1747    0.9470   -1.7413 C   0  0  0  0  0  0  0  0  0  0  0  0
    0.1641    1.3991   -2.7370 H   0  0  0  0  0  0  0  0  0  0  0  0
    0.4264    2.0519   -0.7204 C   0  0  0  0  0  0  0  0  0  0  0  0
   -0.4418    2.5613   -0.0500 O   0  0  0  0  0  0  0  0  0  0  0  0
    1.6836    2.4440   -0.7656 O   0  0  0  0  0  0  0  0  0  0  0  0
    2.1164    3.4792    0.1412 C   0  0  0  0  0  0  0  0  0  0  0  0
    2.8198    2.8665    1.3410 C   0  0  0  0  0  0  0  0  0  0  0  0
   -1.5386    0.3491   -1.5614 S   0  0  0  0  0  0  0  0  0  0  0  0
   -1.6716   -0.8898    0.1600 P   0  0  0  0  0  0  0  0  0  0  0  0
   -0.6139   -2.5377    0.2307 S   0  0  0  0  0  0  0  0  0  0  0  0
   -1.6481   -0.0693    1.5075 O   0  0  0  0  0  0  0  0  0  0  0  0
   -2.5192    1.0453    1.7821 C   0  0  0  0  0  0  0  0  0  0  0  0
   -3.2409   -1.2041    0.0555 O   0  0  0  0  0  0  0  0  0  0  0  0
   -3.7648   -2.0741   -0.9532 C   0  0  0  0  0  0  0  0  0  0  0  0
    4.8947   -1.9467    0.6874 H   0  0  0  0  0  0  0  0  0  0  0  0
    4.4453   -0.4208    1.4639 H   0  0  0  0  0  0  0  0  0  0  0  0
    4.5927   -1.8935    2.4317 H   0  0  0  0  0  0  0  0  0  0  0  0
    2.1768   -1.3350    1.9715 H   0  0  0  0  0  0  0  0  0  0  0  0
    2.6433   -2.8975    1.2492 H   0  0  0  0  0  0  0  0  0  0  0  0
    0.9098   -1.0515   -2.1787 H   0  0  0  0  0  0  0  0  0  0  0  0
    2.1605    0.1995   -2.1248 H   0  0  0  0  0  0  0  0  0  0  0  0
    2.7941    4.1003   -0.4458 H   0  0  0  0  0  0  0  0  0  0  0  0
    1.2412    4.0560    0.4520 H   0  0  0  0  0  0  0  0  0  0  0  0
    3.0964    3.6501    2.0384 H   0  0  0  0  0  0  0  0  0  0  0  0
    2.1531    2.1640    1.8386 H   0  0  0  0  0  0  0  0  0  0  0  0
    3.7131    2.3359    1.0224 H   0  0  0  0  0  0  0  0  0  0  0  0
   -2.4521    1.1938    2.8566 H   0  0  0  0  0  0  0  0  0  0  0  0
   -3.5386    0.8084    1.4846 H   0  0  0  0  0  0  0  0  0  0  0  0
   -2.1556    1.9248    1.2510 H   0  0  0  0  0  0  0  0  0  0  0  0
   -3.1390   -2.9639   -1.0398 H   0  0  0  0  0  0  0  0  0  0  0  0
   -3.8051   -1.5509   -1.9076 H   0  0  0  0  0  0  0  0  0  0  0  0
   -4.7632   -2.3434   -0.6178 H   0  0  0  0  0  0  0  0  0  0  0  0
  1  2  1  0  0  0  0
  2  3  1  0  0  0  0
  3  4  4  0  0  0  0
  4  5  2  0  0  0  0
  4  6  1  0  0  0  0
  6  7  1  0  0  0  0
  7  8  1  0  0  0  0
  7  9  1  0  0  0  0
  9 10  2  0  0  0  0
  9 11  1  0  0  0  0
 11 12  1  0  0  0  0
 12 13  1  0  0  0  0
  7 14  1  0  0  0  0
 14 15  1  0  0  0  0
 15 16  2  0  0  0  0
 15 17  2  0  0  0  0
 17 18  1  0  0  0  0
 15 19  1  0  0  0  0
 19 20  1  0  0  0  0
  1 21  1  0  0  0  0
  1 22  1  0  0  0  0
  1 23  1  0  0  0  0
  2 24  1  0  0  0  0
  2 25  1  0  0  0  0
  6 26  1  0  0  0  0
  6 27  1  0  0  0  0
 12 28  1  0  0  0  0
 12 29  1  0  0  0  0
 13 30  1  0  0  0  0
 13 31  1  0  0  0  0
 13 32  1  0  0  0  0
 18 33  1  0  0  0  0
 18 34  1  0  0  0  0
 18 35  1  0  0  0  0
 20 36  1  0  0  0  0
 20 37  1  0  0  0  0
 20 38  1  0  0  0  0
M  END
