 xtb: 6.7.1 (edcfbbe)
          04092505213D

 41 40  0     0  0            999 V2000
    0.3173   -2.6997    1.1514 C   0  0  0  0  0  0  0  0  0  0  0  0
    1.6056   -2.1969    1.7695 C   0  0  0  0  0  0  0  0  0  0  0  0
    2.0064   -0.9264    1.2329 O   0  0  0  0  0  0  0  0  0  0  0  0
    2.4197   -0.7416   -0.3001 P   0  0  0  0  0  0  0  0  0  0  0  0
    3.3045   -2.3001   -1.0908 S   0  0  0  0  0  0  0  0  0  0  0  0
    3.2857    0.5867   -0.2222 O   0  0  0  0  0  0  0  0  0  0  0  0
    4.6359    0.5595    0.2968 C   0  0  0  0  0  0  0  0  0  0  0  0
    5.3876    1.7356   -0.2912 C   0  0  0  0  0  0  0  0  0  0  0  0
    0.7466    0.0450   -1.3062 S   0  0  0  0  0  0  0  0  0  0  0  0
    0.3645    1.4287   -0.1836 C   0  0  0  0  0  0  0  0  0  0  0  0
   -0.6569    0.9617    1.2358 S   0  0  0  0  0  0  0  0  0  0  0  0
   -2.4381    0.6847    0.1508 P   0  0  0  0  0  0  0  0  0  0  0  0
   -2.8023    1.9300   -1.3264 S   0  0  0  0  0  0  0  0  0  0  0  0
   -3.5913    0.5996    1.2437 O   0  0  0  0  0  0  0  0  0  0  0  0
   -4.3174    1.7574    1.6932 C   0  0  0  0  0  0  0  0  0  0  0  0
   -3.4358    2.7170    2.4658 C   0  0  0  0  0  0  0  0  0  0  0  0
   -2.2773   -0.8389   -0.2474 O   0  0  0  0  0  0  0  0  0  0  0  0
   -3.0427   -1.4577   -1.3043 C   0  0  0  0  0  0  0  0  0  0  0  0
   -2.1733   -2.4991   -1.9786 C   0  0  0  0  0  0  0  0  0  0  0  0
    0.4629   -2.8540    0.0817 H   0  0  0  0  0  0  0  0  0  0  0  0
    0.0430   -3.6447    1.6093 H   0  0  0  0  0  0  0  0  0  0  0  0
   -0.4880   -1.9837    1.2965 H   0  0  0  0  0  0  0  0  0  0  0  0
    2.4137   -2.9137    1.5921 H   0  0  0  0  0  0  0  0  0  0  0  0
    1.4965   -2.0081    2.8381 H   0  0  0  0  0  0  0  0  0  0  0  0
    4.5777    0.6206    1.3860 H   0  0  0  0  0  0  0  0  0  0  0  0
    5.0983   -0.3923    0.0135 H   0  0  0  0  0  0  0  0  0  0  0  0
    4.8997    2.6668   -0.0182 H   0  0  0  0  0  0  0  0  0  0  0  0
    6.4026    1.7356    0.0925 H   0  0  0  0  0  0  0  0  0  0  0  0
    5.4142    1.6569   -1.3746 H   0  0  0  0  0  0  0  0  0  0  0  0
   -0.1795    2.1558   -0.7874 H   0  0  0  0  0  0  0  0  0  0  0  0
    1.2891    1.8453    0.2030 H   0  0  0  0  0  0  0  0  0  0  0  0
   -4.7516    2.2524    0.8188 H   0  0  0  0  0  0  0  0  0  0  0  0
   -5.1097    1.3430    2.3179 H   0  0  0  0  0  0  0  0  0  0  0  0
   -4.0478    3.5096    2.8843 H   0  0  0  0  0  0  0  0  0  0  0  0
   -2.9209    2.1948    3.2682 H   0  0  0  0  0  0  0  0  0  0  0  0
   -2.6943    3.1576    1.8006 H   0  0  0  0  0  0  0  0  0  0  0  0
   -3.9280   -1.9074   -0.8494 H   0  0  0  0  0  0  0  0  0  0  0  0
   -3.3534   -0.6825   -2.0133 H   0  0  0  0  0  0  0  0  0  0  0  0
   -2.7369   -2.9698   -2.7774 H   0  0  0  0  0  0  0  0  0  0  0  0
   -1.2846   -2.0308   -2.3957 H   0  0  0  0  0  0  0  0  0  0  0  0
   -1.8688   -3.2541   -1.2596 H   0  0  0  0  0  0  0  0  0  0  0  0
  1  2  1  0  0  0  0
  2  3  1  0  0  0  0
  3  4  2  0  0  0  0
  4  5  2  0  0  0  0
  4  6  2  0  0  0  0
  6  7  1  0  0  0  0
  7  8  1  0  0  0  0
  4  9  1  0  0  0  0
  9 10  1  0  0  0  0
 10 11  1  0  0  0  0
 11 12  1  0  0  0  0
 12 13  2  0  0  0  0
 12 14  2  0  0  0  0
 14 15  1  0  0  0  0
 15 16  1  0  0  0  0
 12 17  2  0  0  0  0
 17 18  1  0  0  0  0
 18 19  1  0  0  0  0
  1 20  1  0  0  0  0
  1 21  1  0  0  0  0
  1 22  1  0  0  0  0
  2 23  1  0  0  0  0
  2 24  1  0  0  0  0
  7 25  1  0  0  0  0
  7 26  1  0  0  0  0
  8 27  1  0  0  0  0
  8 28  1  0  0  0  0
  8 29  1  0  0  0  0
 10 30  1  0  0  0  0
 10 31  1  0  0  0  0
 15 32  1  0  0  0  0
 15 33  1  0  0  0  0
 16 34  1  0  0  0  0
 16 35  1  0  0  0  0
 16 36  1  0  0  0  0
 18 37  1  0  0  0  0
 18 38  1  0  0  0  0
 19 39  1  0  0  0  0
 19 40  1  0  0  0  0
 19 41  1  0  0  0  0
M  END
