 xtb: 6.7.1 (edcfbbe)
          04092505203D

 41 40  0     0  0            999 V2000
    4.3921   -0.0445   -2.2159 C   0  0  0  0  0  0  0  0  0  0  0  0
    4.5454    0.1499   -0.7215 C   0  0  0  0  0  0  0  0  0  0  0  0
    3.4756   -0.4624    0.0195 O   0  0  0  0  0  0  0  0  0  0  0  0
    1.9817    0.0903   -0.0157 P   0  0  0  0  0  0  0  0  0  0  0  0
    1.9004    2.0512   -0.1109 S   0  0  0  0  0  0  0  0  0  0  0  0
    1.3687   -0.6588    1.2323 O   0  0  0  0  0  0  0  0  0  0  0  0
    1.9072   -0.6109    2.5701 C   0  0  0  0  0  0  0  0  0  0  0  0
    1.5125    0.6651    3.2856 C   0  0  0  0  0  0  0  0  0  0  0  0
    1.0560   -0.9595   -1.5915 S   0  0  0  0  0  0  0  0  0  0  0  0
   -0.0566    0.3317   -2.2256 C   0  0  0  0  0  0  0  0  0  0  0  0
   -1.8186    0.0087   -1.9315 S   0  0  0  0  0  0  0  0  0  0  0  0
   -1.8341   -0.3637    0.1722 P   0  0  0  0  0  0  0  0  0  0  0  0
   -1.2919   -2.1251    0.8272 S   0  0  0  0  0  0  0  0  0  0  0  0
   -3.3330    0.0081    0.5548 O   0  0  0  0  0  0  0  0  0  0  0  0
   -4.3983   -0.9558    0.5038 C   0  0  0  0  0  0  0  0  0  0  0  0
   -4.7190   -1.3746   -0.9161 C   0  0  0  0  0  0  0  0  0  0  0  0
   -1.0171    0.8460    0.7831 O   0  0  0  0  0  0  0  0  0  0  0  0
   -1.5053    2.2141    0.7017 C   0  0  0  0  0  0  0  0  0  0  0  0
   -2.1797    2.6203    1.9946 C   0  0  0  0  0  0  0  0  0  0  0  0
    4.2471   -1.0969   -2.4471 H   0  0  0  0  0  0  0  0  0  0  0  0
    3.5321    0.5163   -2.5788 H   0  0  0  0  0  0  0  0  0  0  0  0
    5.2849    0.3162   -2.7164 H   0  0  0  0  0  0  0  0  0  0  0  0
    4.5711    1.2159   -0.4730 H   0  0  0  0  0  0  0  0  0  0  0  0
    5.4411   -0.3425   -0.3406 H   0  0  0  0  0  0  0  0  0  0  0  0
    1.4687   -1.4885    3.0499 H   0  0  0  0  0  0  0  0  0  0  0  0
    2.9931   -0.7224    2.5162 H   0  0  0  0  0  0  0  0  0  0  0  0
    1.9510    1.5309    2.7927 H   0  0  0  0  0  0  0  0  0  0  0  0
    0.4301    0.7687    3.2750 H   0  0  0  0  0  0  0  0  0  0  0  0
    1.8613    0.6236    4.3126 H   0  0  0  0  0  0  0  0  0  0  0  0
    0.0483    0.3557   -3.3076 H   0  0  0  0  0  0  0  0  0  0  0  0
    0.2336    1.2884   -1.7815 H   0  0  0  0  0  0  0  0  0  0  0  0
   -4.1079   -1.8232    1.1051 H   0  0  0  0  0  0  0  0  0  0  0  0
   -5.2385   -0.4413    0.9721 H   0  0  0  0  0  0  0  0  0  0  0  0
   -4.9050   -0.5019   -1.5369 H   0  0  0  0  0  0  0  0  0  0  0  0
   -3.8820   -1.9310   -1.3363 H   0  0  0  0  0  0  0  0  0  0  0  0
   -5.5978   -2.0112   -0.9130 H   0  0  0  0  0  0  0  0  0  0  0  0
   -0.6122    2.8154    0.5155 H   0  0  0  0  0  0  0  0  0  0  0  0
   -2.1919    2.2951   -0.1445 H   0  0  0  0  0  0  0  0  0  0  0  0
   -2.4943    3.6560    1.9129 H   0  0  0  0  0  0  0  0  0  0  0  0
   -3.0475    1.9937    2.1822 H   0  0  0  0  0  0  0  0  0  0  0  0
   -1.4870    2.5240    2.8265 H   0  0  0  0  0  0  0  0  0  0  0  0
  1  2  1  0  0  0  0
  2  3  1  0  0  0  0
  3  4  2  0  0  0  0
  4  5  2  0  0  0  0
  4  6  2  0  0  0  0
  6  7  1  0  0  0  0
  7  8  1  0  0  0  0
  4  9  1  0  0  0  0
  9 10  1  0  0  0  0
 10 11  1  0  0  0  0
 11 12  1  0  0  0  0
 12 13  2  0  0  0  0
 12 14  2  0  0  0  0
 14 15  1  0  0  0  0
 15 16  1  0  0  0  0
 12 17  2  0  0  0  0
 17 18  1  0  0  0  0
 18 19  1  0  0  0  0
  1 20  1  0  0  0  0
  1 21  1  0  0  0  0
  1 22  1  0  0  0  0
  2 23  1  0  0  0  0
  2 24  1  0  0  0  0
  7 25  1  0  0  0  0
  7 26  1  0  0  0  0
  8 27  1  0  0  0  0
  8 28  1  0  0  0  0
  8 29  1  0  0  0  0
 10 30  1  0  0  0  0
 10 31  1  0  0  0  0
 15 32  1  0  0  0  0
 15 33  1  0  0  0  0
 16 34  1  0  0  0  0
 16 35  1  0  0  0  0
 16 36  1  0  0  0  0
 18 37  1  0  0  0  0
 18 38  1  0  0  0  0
 19 39  1  0  0  0  0
 19 40  1  0  0  0  0
 19 41  1  0  0  0  0
M  END
