 xtb: 6.7.1 (edcfbbe)
          04092505203D

 41 40  0     0  0            999 V2000
    4.7611   -1.2016   -0.9161 C   0  0  0  0  0  0  0  0  0  0  0  0
    4.6741    0.2216   -0.4044 C   0  0  0  0  0  0  0  0  0  0  0  0
    3.4826    0.4469    0.3691 O   0  0  0  0  0  0  0  0  0  0  0  0
    2.0268    0.4422   -0.2771 P   0  0  0  0  0  0  0  0  0  0  0  0
    1.9670    1.2535   -2.0669 S   0  0  0  0  0  0  0  0  0  0  0  0
    1.2017    1.1336    0.8833 O   0  0  0  0  0  0  0  0  0  0  0  0
    1.2659    2.5604    1.0943 C   0  0  0  0  0  0  0  0  0  0  0  0
    0.4160    2.8815    2.3048 C   0  0  0  0  0  0  0  0  0  0  0  0
    1.3753   -1.5400   -0.0797 S   0  0  0  0  0  0  0  0  0  0  0  0
    0.1736   -1.6257   -1.4508 C   0  0  0  0  0  0  0  0  0  0  0  0
   -1.5026   -1.9888   -0.8879 S   0  0  0  0  0  0  0  0  0  0  0  0
   -1.9289   -0.1339    0.0652 P   0  0  0  0  0  0  0  0  0  0  0  0
   -1.4443    1.4680   -0.9488 S   0  0  0  0  0  0  0  0  0  0  0  0
   -1.2962   -0.1815    1.5022 O   0  0  0  0  0  0  0  0  0  0  0  0
   -1.5845   -1.2455    2.4508 C   0  0  0  0  0  0  0  0  0  0  0  0
   -0.3726   -1.4239    3.3404 C   0  0  0  0  0  0  0  0  0  0  0  0
   -3.4776   -0.2859    0.3880 O   0  0  0  0  0  0  0  0  0  0  0  0
   -4.4735   -0.2422   -0.6547 C   0  0  0  0  0  0  0  0  0  0  0  0
   -5.8260   -0.0664    0.0048 C   0  0  0  0  0  0  0  0  0  0  0  0
    4.6344   -1.9063   -0.0983 H   0  0  0  0  0  0  0  0  0  0  0  0
    3.9820   -1.3764   -1.6569 H   0  0  0  0  0  0  0  0  0  0  0  0
    5.7292   -1.3561   -1.3814 H   0  0  0  0  0  0  0  0  0  0  0  0
    4.6820    0.9307   -1.2383 H   0  0  0  0  0  0  0  0  0  0  0  0
    5.4830    0.4524    0.2901 H   0  0  0  0  0  0  0  0  0  0  0  0
    2.3112    2.8437    1.2452 H   0  0  0  0  0  0  0  0  0  0  0  0
    0.8845    3.0550    0.1941 H   0  0  0  0  0  0  0  0  0  0  0  0
    0.8098    2.3737    3.1804 H   0  0  0  0  0  0  0  0  0  0  0  0
    0.4211    3.9538    2.4705 H   0  0  0  0  0  0  0  0  0  0  0  0
   -0.6042    2.5480    2.1307 H   0  0  0  0  0  0  0  0  0  0  0  0
    0.4578   -2.4518   -2.0974 H   0  0  0  0  0  0  0  0  0  0  0  0
    0.1903   -0.6754   -1.9920 H   0  0  0  0  0  0  0  0  0  0  0  0
   -2.4635   -0.9379    3.0194 H   0  0  0  0  0  0  0  0  0  0  0  0
   -1.8121   -2.1604    1.8959 H   0  0  0  0  0  0  0  0  0  0  0  0
   -0.1423   -0.4913    3.8474 H   0  0  0  0  0  0  0  0  0  0  0  0
   -0.5839   -2.1927    4.0765 H   0  0  0  0  0  0  0  0  0  0  0  0
    0.4895   -1.7212    2.7483 H   0  0  0  0  0  0  0  0  0  0  0  0
   -4.2389    0.5914   -1.3248 H   0  0  0  0  0  0  0  0  0  0  0  0
   -4.4196   -1.1787   -1.2160 H   0  0  0  0  0  0  0  0  0  0  0  0
   -5.8490    0.8626    0.5675 H   0  0  0  0  0  0  0  0  0  0  0  0
   -6.5940   -0.0404   -0.7611 H   0  0  0  0  0  0  0  0  0  0  0  0
   -6.0188   -0.8940    0.6810 H   0  0  0  0  0  0  0  0  0  0  0  0
  1  2  1  0  0  0  0
  2  3  1  0  0  0  0
  3  4  2  0  0  0  0
  4  5  2  0  0  0  0
  4  6  2  0  0  0  0
  6  7  1  0  0  0  0
  7  8  1  0  0  0  0
  4  9  1  0  0  0  0
  9 10  1  0  0  0  0
 10 11  1  0  0  0  0
 11 12  1  0  0  0  0
 12 13  2  0  0  0  0
 12 14  2  0  0  0  0
 14 15  1  0  0  0  0
 15 16  1  0  0  0  0
 12 17  2  0  0  0  0
 17 18  1  0  0  0  0
 18 19  1  0  0  0  0
  1 20  1  0  0  0  0
  1 21  1  0  0  0  0
  1 22  1  0  0  0  0
  2 23  1  0  0  0  0
  2 24  1  0  0  0  0
  7 25  1  0  0  0  0
  7 26  1  0  0  0  0
  8 27  1  0  0  0  0
  8 28  1  0  0  0  0
  8 29  1  0  0  0  0
 10 30  1  0  0  0  0
 10 31  1  0  0  0  0
 15 32  1  0  0  0  0
 15 33  1  0  0  0  0
 16 34  1  0  0  0  0
 16 35  1  0  0  0  0
 16 36  1  0  0  0  0
 18 37  1  0  0  0  0
 18 38  1  0  0  0  0
 19 39  1  0  0  0  0
 19 40  1  0  0  0  0
 19 41  1  0  0  0  0
M  END
