 xtb: 6.7.1 (edcfbbe)
          04092505213D

 41 40  0     0  0            999 V2000
    5.3236   -1.4574   -0.8967 C   0  0  0  0  0  0  0  0  0  0  0  0
    4.0051   -0.9903   -1.4801 C   0  0  0  0  0  0  0  0  0  0  0  0
    3.1465   -0.6139   -0.3885 O   0  0  0  0  0  0  0  0  0  0  0  0
    1.8299    0.2550   -0.6311 P   0  0  0  0  0  0  0  0  0  0  0  0
    2.0886    1.8076   -1.7924 S   0  0  0  0  0  0  0  0  0  0  0  0
    1.3736    0.4774    0.8657 O   0  0  0  0  0  0  0  0  0  0  0  0
    1.6600    1.7037    1.5689 C   0  0  0  0  0  0  0  0  0  0  0  0
    3.1424    1.8637    1.8226 C   0  0  0  0  0  0  0  0  0  0  0  0
    0.4418   -1.1868   -1.3253 S   0  0  0  0  0  0  0  0  0  0  0  0
    0.2916   -2.2037    0.1658 C   0  0  0  0  0  0  0  0  0  0  0  0
   -0.7901   -1.5127    1.4714 S   0  0  0  0  0  0  0  0  0  0  0  0
   -2.0334   -0.1975    0.3933 P   0  0  0  0  0  0  0  0  0  0  0  0
   -1.3900    1.5456   -0.2748 S   0  0  0  0  0  0  0  0  0  0  0  0
   -3.2677   -0.0365    1.3827 O   0  0  0  0  0  0  0  0  0  0  0  0
   -3.3446    1.0028    2.3712 C   0  0  0  0  0  0  0  0  0  0  0  0
   -2.3574    0.7769    3.4981 C   0  0  0  0  0  0  0  0  0  0  0  0
   -2.6029   -1.2067   -0.6844 O   0  0  0  0  0  0  0  0  0  0  0  0
   -3.1846   -0.7707   -1.9287 C   0  0  0  0  0  0  0  0  0  0  0  0
   -4.5188   -0.0890   -1.7111 C   0  0  0  0  0  0  0  0  0  0  0  0
    5.1582   -2.2942   -0.2246 H   0  0  0  0  0  0  0  0  0  0  0  0
    5.9781   -1.7681   -1.7043 H   0  0  0  0  0  0  0  0  0  0  0  0
    5.7948   -0.6493   -0.3447 H   0  0  0  0  0  0  0  0  0  0  0  0
    3.5131   -1.7859   -2.0479 H   0  0  0  0  0  0  0  0  0  0  0  0
    4.1371   -0.1211   -2.1333 H   0  0  0  0  0  0  0  0  0  0  0  0
    1.2637    2.5397    0.9830 H   0  0  0  0  0  0  0  0  0  0  0  0
    1.0954    1.6073    2.4979 H   0  0  0  0  0  0  0  0  0  0  0  0
    3.6667    1.9659    0.8729 H   0  0  0  0  0  0  0  0  0  0  0  0
    3.3104    2.7562    2.4169 H   0  0  0  0  0  0  0  0  0  0  0  0
    3.5278    0.9950    2.3497 H   0  0  0  0  0  0  0  0  0  0  0  0
    1.2725   -2.3412    0.6168 H   0  0  0  0  0  0  0  0  0  0  0  0
   -0.1336   -3.1487   -0.1643 H   0  0  0  0  0  0  0  0  0  0  0  0
   -3.1567    1.9634    1.8794 H   0  0  0  0  0  0  0  0  0  0  0  0
   -4.3766    0.9596    2.7214 H   0  0  0  0  0  0  0  0  0  0  0  0
   -2.5006   -0.2084    3.9341 H   0  0  0  0  0  0  0  0  0  0  0  0
   -1.3405    0.8411    3.1111 H   0  0  0  0  0  0  0  0  0  0  0  0
   -2.4959    1.5369    4.2602 H   0  0  0  0  0  0  0  0  0  0  0  0
   -2.4781   -0.0976   -2.4266 H   0  0  0  0  0  0  0  0  0  0  0  0
   -3.2842   -1.6904   -2.5064 H   0  0  0  0  0  0  0  0  0  0  0  0
   -4.3728    0.8403   -1.1616 H   0  0  0  0  0  0  0  0  0  0  0  0
   -4.9699    0.1367   -2.6723 H   0  0  0  0  0  0  0  0  0  0  0  0
   -5.1802   -0.7350   -1.1401 H   0  0  0  0  0  0  0  0  0  0  0  0
  1  2  1  0  0  0  0
  2  3  1  0  0  0  0
  3  4  2  0  0  0  0
  4  5  2  0  0  0  0
  4  6  2  0  0  0  0
  6  7  1  0  0  0  0
  7  8  1  0  0  0  0
  4  9  1  0  0  0  0
  9 10  1  0  0  0  0
 10 11  1  0  0  0  0
 11 12  1  0  0  0  0
 12 13  2  0  0  0  0
 12 14  2  0  0  0  0
 14 15  1  0  0  0  0
 15 16  1  0  0  0  0
 12 17  2  0  0  0  0
 17 18  1  0  0  0  0
 18 19  1  0  0  0  0
  1 20  1  0  0  0  0
  1 21  1  0  0  0  0
  1 22  1  0  0  0  0
  2 23  1  0  0  0  0
  2 24  1  0  0  0  0
  7 25  1  0  0  0  0
  7 26  1  0  0  0  0
  8 27  1  0  0  0  0
  8 28  1  0  0  0  0
  8 29  1  0  0  0  0
 10 30  1  0  0  0  0
 10 31  1  0  0  0  0
 15 32  1  0  0  0  0
 15 33  1  0  0  0  0
 16 34  1  0  0  0  0
 16 35  1  0  0  0  0
 16 36  1  0  0  0  0
 18 37  1  0  0  0  0
 18 38  1  0  0  0  0
 19 39  1  0  0  0  0
 19 40  1  0  0  0  0
 19 41  1  0  0  0  0
M  END
