 xtb: 6.7.1 (edcfbbe)
          04092505203D

 41 40  0     0  0            999 V2000
    2.1415    2.1793   -1.1000 C   0  0  0  0  0  0  0  0  0  0  0  0
    2.2937    2.3071    0.4010 C   0  0  0  0  0  0  0  0  0  0  0  0
    1.6317    1.2375    1.1259 O   0  0  0  0  0  0  0  0  0  0  0  0
    1.9874   -0.2955    1.0038 P   0  0  0  0  0  0  0  0  0  0  0  0
    1.5401   -1.3020    2.6216 S   0  0  0  0  0  0  0  0  0  0  0  0
    3.5324   -0.2508    0.6393 O   0  0  0  0  0  0  0  0  0  0  0  0
    4.3027   -1.4675    0.5559 C   0  0  0  0  0  0  0  0  0  0  0  0
    5.7699   -1.0949    0.6206 C   0  0  0  0  0  0  0  0  0  0  0  0
    1.0803   -1.0330   -0.7886 S   0  0  0  0  0  0  0  0  0  0  0  0
   -0.2950   -1.9412   -0.0449 C   0  0  0  0  0  0  0  0  0  0  0  0
   -1.5006   -0.8793    0.7915 S   0  0  0  0  0  0  0  0  0  0  0  0
   -2.1247    0.2398   -0.9240 P   0  0  0  0  0  0  0  0  0  0  0  0
   -1.9306   -0.6144   -2.6684 S   0  0  0  0  0  0  0  0  0  0  0  0
   -1.3327    1.6029   -0.8202 O   0  0  0  0  0  0  0  0  0  0  0  0
   -1.4637    2.5068    0.3107 C   0  0  0  0  0  0  0  0  0  0  0  0
   -1.4073    3.9273   -0.2123 C   0  0  0  0  0  0  0  0  0  0  0  0
   -3.6003    0.7023   -0.5451 O   0  0  0  0  0  0  0  0  0  0  0  0
   -4.7608   -0.0801   -0.8778 C   0  0  0  0  0  0  0  0  0  0  0  0
   -4.8060   -1.3936   -0.1246 C   0  0  0  0  0  0  0  0  0  0  0  0
    2.5668    3.0581   -1.5750 H   0  0  0  0  0  0  0  0  0  0  0  0
    2.6643    1.2955   -1.4614 H   0  0  0  0  0  0  0  0  0  0  0  0
    1.0931    2.0944   -1.3783 H   0  0  0  0  0  0  0  0  0  0  0  0
    1.8057    3.2058    0.7819 H   0  0  0  0  0  0  0  0  0  0  0  0
    3.3467    2.3066    0.6868 H   0  0  0  0  0  0  0  0  0  0  0  0
    4.0167   -2.1183    1.3888 H   0  0  0  0  0  0  0  0  0  0  0  0
    4.0556   -1.9624   -0.3873 H   0  0  0  0  0  0  0  0  0  0  0  0
    6.0218   -0.4265   -0.1975 H   0  0  0  0  0  0  0  0  0  0  0  0
    5.9881   -0.5997    1.5626 H   0  0  0  0  0  0  0  0  0  0  0  0
    6.3682   -1.9968    0.5442 H   0  0  0  0  0  0  0  0  0  0  0  0
    0.0804   -2.6249    0.7154 H   0  0  0  0  0  0  0  0  0  0  0  0
   -0.7774   -2.4717   -0.8646 H   0  0  0  0  0  0  0  0  0  0  0  0
   -2.4100    2.3084    0.8166 H   0  0  0  0  0  0  0  0  0  0  0  0
   -0.6388    2.2892    0.9938 H   0  0  0  0  0  0  0  0  0  0  0  0
   -1.4714    4.6152    0.6248 H   0  0  0  0  0  0  0  0  0  0  0  0
   -0.4779    4.0962   -0.7484 H   0  0  0  0  0  0  0  0  0  0  0  0
   -2.2382    4.1068   -0.8891 H   0  0  0  0  0  0  0  0  0  0  0  0
   -5.5957    0.5683   -0.6081 H   0  0  0  0  0  0  0  0  0  0  0  0
   -4.7580   -0.2561   -1.9578 H   0  0  0  0  0  0  0  0  0  0  0  0
   -4.6906   -1.2243    0.9432 H   0  0  0  0  0  0  0  0  0  0  0  0
   -5.7574   -1.8810   -0.3120 H   0  0  0  0  0  0  0  0  0  0  0  0
   -4.0032   -2.0457   -0.4654 H   0  0  0  0  0  0  0  0  0  0  0  0
  1  2  1  0  0  0  0
  2  3  1  0  0  0  0
  3  4  2  0  0  0  0
  4  5  2  0  0  0  0
  4  6  2  0  0  0  0
  6  7  1  0  0  0  0
  7  8  1  0  0  0  0
  4  9  1  0  0  0  0
  9 10  1  0  0  0  0
 10 11  1  0  0  0  0
 11 12  1  0  0  0  0
 12 13  2  0  0  0  0
 12 14  2  0  0  0  0
 14 15  1  0  0  0  0
 15 16  1  0  0  0  0
 12 17  2  0  0  0  0
 17 18  1  0  0  0  0
 18 19  1  0  0  0  0
  1 20  1  0  0  0  0
  1 21  1  0  0  0  0
  1 22  1  0  0  0  0
  2 23  1  0  0  0  0
  2 24  1  0  0  0  0
  7 25  1  0  0  0  0
  7 26  1  0  0  0  0
  8 27  1  0  0  0  0
  8 28  1  0  0  0  0
  8 29  1  0  0  0  0
 10 30  1  0  0  0  0
 10 31  1  0  0  0  0
 15 32  1  0  0  0  0
 15 33  1  0  0  0  0
 16 34  1  0  0  0  0
 16 35  1  0  0  0  0
 16 36  1  0  0  0  0
 18 37  1  0  0  0  0
 18 38  1  0  0  0  0
 19 39  1  0  0  0  0
 19 40  1  0  0  0  0
 19 41  1  0  0  0  0
M  END
