 xtb: 6.7.1 (edcfbbe)
          04092507313D

 38 37  0     0  0            999 V2000
    4.9336   -3.3797   -1.3609 C   0  0  0  0  0  0  0  0  0  0  0  0
    3.9212   -2.6703   -0.4840 C   0  0  0  0  0  0  0  0  0  0  0  0
    3.1347   -1.8031   -1.3261 O   0  0  0  0  0  0  0  0  0  0  0  0
    2.2991   -0.9722   -0.7522 C   0  0  0  0  0  0  0  0  0  0  0  0
    2.1361   -0.8826    0.4494 O   0  0  0  0  0  0  0  0  0  0  0  0
    1.5634   -0.1098   -1.7553 C   0  0  0  0  0  0  0  0  0  0  0  0
    0.3177    0.4686   -1.1011 C   0  0  0  0  0  0  0  0  0  0  0  0
   -0.1409    1.2376   -1.7296 H   0  0  0  0  0  0  0  0  0  0  0  0
    0.6286    1.0897    0.2493 C   0  0  0  0  0  0  0  0  0  0  0  0
   -0.0599    0.8858    1.2309 O   0  0  0  0  0  0  0  0  0  0  0  0
    1.6210    1.9364    0.1796 O   0  0  0  0  0  0  0  0  0  0  0  0
    2.0114    2.6381    1.3792 C   0  0  0  0  0  0  0  0  0  0  0  0
    3.1301    1.8939    2.0886 C   0  0  0  0  0  0  0  0  0  0  0  0
   -0.9248   -0.8405   -0.8252 S   0  0  0  0  0  0  0  0  0  0  0  0
   -2.3624    0.2779    0.2625 P   0  0  0  0  0  0  0  0  0  0  0  0
   -2.4768    2.1982   -0.1008 S   0  0  0  0  0  0  0  0  0  0  0  0
   -3.6945   -0.4931   -0.2213 O   0  0  0  0  0  0  0  0  0  0  0  0
   -4.1827   -0.3755   -1.5598 C   0  0  0  0  0  0  0  0  0  0  0  0
   -2.4334   -0.1279    1.7893 O   0  0  0  0  0  0  0  0  0  0  0  0
   -2.1537   -1.4612    2.2505 C   0  0  0  0  0  0  0  0  0  0  0  0
    5.5843   -2.6556   -1.8414 H   0  0  0  0  0  0  0  0  0  0  0  0
    5.5309   -4.0481   -0.7499 H   0  0  0  0  0  0  0  0  0  0  0  0
    4.4223   -3.9544   -2.1268 H   0  0  0  0  0  0  0  0  0  0  0  0
    4.4019   -2.0617    0.2880 H   0  0  0  0  0  0  0  0  0  0  0  0
    3.2432   -3.3756    0.0062 H   0  0  0  0  0  0  0  0  0  0  0  0
    1.3094   -0.7023   -2.6333 H   0  0  0  0  0  0  0  0  0  0  0  0
    2.2264    0.7044   -2.0558 H   0  0  0  0  0  0  0  0  0  0  0  0
    2.3372    3.6178    1.0283 H   0  0  0  0  0  0  0  0  0  0  0  0
    1.1328    2.7378    2.0227 H   0  0  0  0  0  0  0  0  0  0  0  0
    4.0094    1.8426    1.4528 H   0  0  0  0  0  0  0  0  0  0  0  0
    3.3797    2.4117    3.0086 H   0  0  0  0  0  0  0  0  0  0  0  0
    2.8070    0.8815    2.3229 H   0  0  0  0  0  0  0  0  0  0  0  0
   -4.2089    0.6748   -1.8557 H   0  0  0  0  0  0  0  0  0  0  0  0
   -5.1872   -0.7905   -1.5430 H   0  0  0  0  0  0  0  0  0  0  0  0
   -3.5426   -0.9389   -2.2386 H   0  0  0  0  0  0  0  0  0  0  0  0
   -1.0835   -1.6546    2.1669 H   0  0  0  0  0  0  0  0  0  0  0  0
   -2.7194   -2.1892    1.6705 H   0  0  0  0  0  0  0  0  0  0  0  0
   -2.4616   -1.4706    3.2928 H   0  0  0  0  0  0  0  0  0  0  0  0
  1  2  1  0  0  0  0
  2  3  1  0  0  0  0
  3  4  4  0  0  0  0
  4  5  2  0  0  0  0
  4  6  1  0  0  0  0
  6  7  1  0  0  0  0
  7  8  1  0  0  0  0
  7  9  1  0  0  0  0
  9 10  2  0  0  0  0
  9 11  4  0  0  0  0
 11 12  1  0  0  0  0
 12 13  1  0  0  0  0
  7 14  1  0  0  0  0
 14 15  1  0  0  0  0
 15 16  2  0  0  0  0
 15 17  1  0  0  0  0
 17 18  1  0  0  0  0
 15 19  2  0  0  0  0
 19 20  1  0  0  0  0
  1 21  1  0  0  0  0
  1 22  1  0  0  0  0
  1 23  1  0  0  0  0
  2 24  1  0  0  0  0
  2 25  1  0  0  0  0
  6 26  1  0  0  0  0
  6 27  1  0  0  0  0
 12 28  1  0  0  0  0
 12 29  1  0  0  0  0
 13 30  1  0  0  0  0
 13 31  1  0  0  0  0
 13 32  1  0  0  0  0
 18 33  1  0  0  0  0
 18 34  1  0  0  0  0
 18 35  1  0  0  0  0
 20 36  1  0  0  0  0
 20 37  1  0  0  0  0
 20 38  1  0  0  0  0
M  END
