 xtb: 6.7.1 (edcfbbe)
          04092507313D

 38 37  0     0  0            999 V2000
    4.3438   -3.4168   -1.4420 C   0  0  0  0  0  0  0  0  0  0  0  0
    2.9358   -3.0085   -1.8452 C   0  0  0  0  0  0  0  0  0  0  0  0
    2.5905   -1.7262   -1.2875 O   0  0  0  0  0  0  0  0  0  0  0  0
    2.0870   -1.6866   -0.0698 C   0  0  0  0  0  0  0  0  0  0  0  0
    1.8882   -2.6558    0.6267 O   0  0  0  0  0  0  0  0  0  0  0  0
    1.7647   -0.2641    0.3538 C   0  0  0  0  0  0  0  0  0  0  0  0
    0.9142    0.4299   -0.7096 C   0  0  0  0  0  0  0  0  0  0  0  0
    1.4923    0.5502   -1.6295 H   0  0  0  0  0  0  0  0  0  0  0  0
    0.4181    1.7805   -0.2346 C   0  0  0  0  0  0  0  0  0  0  0  0
   -0.7652    2.0550   -0.1727 O   0  0  0  0  0  0  0  0  0  0  0  0
    1.3876    2.5817    0.0942 O   0  0  0  0  0  0  0  0  0  0  0  0
    1.0357    3.8834    0.6180 C   0  0  0  0  0  0  0  0  0  0  0  0
    2.3205    4.6102    0.9576 C   0  0  0  0  0  0  0  0  0  0  0  0
   -0.5361   -0.5583   -1.1974 S   0  0  0  0  0  0  0  0  0  0  0  0
   -1.8674   -0.1952    0.4366 P   0  0  0  0  0  0  0  0  0  0  0  0
   -1.2601    0.3795    2.2089 S   0  0  0  0  0  0  0  0  0  0  0  0
   -3.1726    0.5038   -0.1633 O   0  0  0  0  0  0  0  0  0  0  0  0
   -3.5188    1.8881   -0.1362 C   0  0  0  0  0  0  0  0  0  0  0  0
   -2.4483   -1.6679    0.6263 O   0  0  0  0  0  0  0  0  0  0  0  0
   -3.0713   -2.4184   -0.4279 C   0  0  0  0  0  0  0  0  0  0  0  0
    4.5995   -4.3512   -1.9306 H   0  0  0  0  0  0  0  0  0  0  0  0
    5.0555   -2.6510   -1.7373 H   0  0  0  0  0  0  0  0  0  0  0  0
    4.3981   -3.5564   -0.3646 H   0  0  0  0  0  0  0  0  0  0  0  0
    2.2045   -3.7454   -1.5015 H   0  0  0  0  0  0  0  0  0  0  0  0
    2.8542   -2.8658   -2.9227 H   0  0  0  0  0  0  0  0  0  0  0  0
    2.6951    0.2921    0.4796 H   0  0  0  0  0  0  0  0  0  0  0  0
    1.2400   -0.3064    1.3110 H   0  0  0  0  0  0  0  0  0  0  0  0
    0.4555    4.4122   -0.1435 H   0  0  0  0  0  0  0  0  0  0  0  0
    0.4024    3.7329    1.4976 H   0  0  0  0  0  0  0  0  0  0  0  0
    2.8709    4.0627    1.7164 H   0  0  0  0  0  0  0  0  0  0  0  0
    2.9404    4.7061    0.0715 H   0  0  0  0  0  0  0  0  0  0  0  0
    2.0805    5.5982    1.3359 H   0  0  0  0  0  0  0  0  0  0  0  0
   -3.1598    2.3497    0.7833 H   0  0  0  0  0  0  0  0  0  0  0  0
   -4.6056    1.9146   -0.1800 H   0  0  0  0  0  0  0  0  0  0  0  0
   -3.0809    2.3938   -0.9943 H   0  0  0  0  0  0  0  0  0  0  0  0
   -3.2740   -3.3965    0.0011 H   0  0  0  0  0  0  0  0  0  0  0  0
   -2.3924   -2.5056   -1.2769 H   0  0  0  0  0  0  0  0  0  0  0  0
   -3.9943   -1.9301   -0.7352 H   0  0  0  0  0  0  0  0  0  0  0  0
  1  2  1  0  0  0  0
  2  3  1  0  0  0  0
  3  4  1  0  0  0  0
  4  5  2  0  0  0  0
  4  6  1  0  0  0  0
  6  7  1  0  0  0  0
  7  8  1  0  0  0  0
  7  9  1  0  0  0  0
  9 10  2  0  0  0  0
  9 11  4  0  0  0  0
 11 12  1  0  0  0  0
 12 13  1  0  0  0  0
  7 14  1  0  0  0  0
 14 15  1  0  0  0  0
 15 16  2  0  0  0  0
 15 17  2  0  0  0  0
 17 18  1  0  0  0  0
 15 19  1  0  0  0  0
 19 20  1  0  0  0  0
  1 21  1  0  0  0  0
  1 22  1  0  0  0  0
  1 23  1  0  0  0  0
  2 24  1  0  0  0  0
  2 25  1  0  0  0  0
  6 26  1  0  0  0  0
  6 27  1  0  0  0  0
 12 28  1  0  0  0  0
 12 29  1  0  0  0  0
 13 30  1  0  0  0  0
 13 31  1  0  0  0  0
 13 32  1  0  0  0  0
 18 33  1  0  0  0  0
 18 34  1  0  0  0  0
 18 35  1  0  0  0  0
 20 36  1  0  0  0  0
 20 37  1  0  0  0  0
 20 38  1  0  0  0  0
M  END
