 xtb: 6.7.1 (edcfbbe)
          04092505203D

 41 40  0     0  0            999 V2000
    3.9780    1.7500   -1.7529 C   0  0  0  0  0  0  0  0  0  0  0  0
    2.6547    1.0154   -1.7453 C   0  0  0  0  0  0  0  0  0  0  0  0
    1.9485    1.2516   -0.5019 O   0  0  0  0  0  0  0  0  0  0  0  0
    1.9501    0.2301    0.6932 P   0  0  0  0  0  0  0  0  0  0  0  0
    0.9923    0.9044    2.2565 S   0  0  0  0  0  0  0  0  0  0  0  0
    3.5083   -0.0035    0.9187 O   0  0  0  0  0  0  0  0  0  0  0  0
    4.0358   -0.6826    2.0742 C   0  0  0  0  0  0  0  0  0  0  0  0
    4.2594   -2.1575    1.8023 C   0  0  0  0  0  0  0  0  0  0  0  0
    1.2550   -1.6377   -0.0835 S   0  0  0  0  0  0  0  0  0  0  0  0
   -0.2536   -1.8558    0.9078 C   0  0  0  0  0  0  0  0  0  0  0  0
   -1.7757   -2.0022   -0.0626 S   0  0  0  0  0  0  0  0  0  0  0  0
   -1.9769   -0.0642   -0.8591 P   0  0  0  0  0  0  0  0  0  0  0  0
   -0.7479    0.5893   -2.2319 S   0  0  0  0  0  0  0  0  0  0  0  0
   -1.9710    0.7952    0.4920 O   0  0  0  0  0  0  0  0  0  0  0  0
   -1.6756    2.1996    0.4890 C   0  0  0  0  0  0  0  0  0  0  0  0
   -2.8154    3.0048   -0.0975 C   0  0  0  0  0  0  0  0  0  0  0  0
   -3.4402   -0.0823   -1.4662 O   0  0  0  0  0  0  0  0  0  0  0  0
   -4.5849   -0.8016   -0.9501 C   0  0  0  0  0  0  0  0  0  0  0  0
   -5.0101   -0.3160    0.4194 C   0  0  0  0  0  0  0  0  0  0  0  0
    4.6315    1.3589   -0.9776 H   0  0  0  0  0  0  0  0  0  0  0  0
    4.4480    1.6167   -2.7221 H   0  0  0  0  0  0  0  0  0  0  0  0
    3.8144    2.8094   -1.5756 H   0  0  0  0  0  0  0  0  0  0  0  0
    2.7916   -0.0614   -1.8763 H   0  0  0  0  0  0  0  0  0  0  0  0
    1.9775    1.3854   -2.5184 H   0  0  0  0  0  0  0  0  0  0  0  0
    4.9796   -0.1736    2.2789 H   0  0  0  0  0  0  0  0  0  0  0  0
    3.3527   -0.5282    2.9158 H   0  0  0  0  0  0  0  0  0  0  0  0
    4.7466   -2.6035    2.6634 H   0  0  0  0  0  0  0  0  0  0  0  0
    3.3154   -2.6662    1.6252 H   0  0  0  0  0  0  0  0  0  0  0  0
    4.8922   -2.2833    0.9281 H   0  0  0  0  0  0  0  0  0  0  0  0
   -0.3368   -1.0215    1.6100 H   0  0  0  0  0  0  0  0  0  0  0  0
   -0.1720   -2.8051    1.4320 H   0  0  0  0  0  0  0  0  0  0  0  0
   -1.4968    2.4383    1.5390 H   0  0  0  0  0  0  0  0  0  0  0  0
   -0.7525    2.3629   -0.0797 H   0  0  0  0  0  0  0  0  0  0  0  0
   -2.9808    2.7031   -1.1319 H   0  0  0  0  0  0  0  0  0  0  0  0
   -3.7254    2.8402    0.4729 H   0  0  0  0  0  0  0  0  0  0  0  0
   -2.5601    4.0594   -0.0720 H   0  0  0  0  0  0  0  0  0  0  0  0
   -5.3547   -0.6144   -1.7007 H   0  0  0  0  0  0  0  0  0  0  0  0
   -4.3407   -1.8664   -0.9300 H   0  0  0  0  0  0  0  0  0  0  0  0
   -5.2458    0.7446    0.3884 H   0  0  0  0  0  0  0  0  0  0  0  0
   -5.8917   -0.8676    0.7309 H   0  0  0  0  0  0  0  0  0  0  0  0
   -4.2153   -0.4812    1.1438 H   0  0  0  0  0  0  0  0  0  0  0  0
  1  2  1  0  0  0  0
  2  3  1  0  0  0  0
  3  4  2  0  0  0  0
  4  5  2  0  0  0  0
  4  6  2  0  0  0  0
  6  7  1  0  0  0  0
  7  8  1  0  0  0  0
  4  9  1  0  0  0  0
  9 10  1  0  0  0  0
 10 11  1  0  0  0  0
 11 12  1  0  0  0  0
 12 13  2  0  0  0  0
 12 14  1  0  0  0  0
 14 15  1  0  0  0  0
 15 16  1  0  0  0  0
 12 17  2  0  0  0  0
 17 18  1  0  0  0  0
 18 19  1  0  0  0  0
  1 20  1  0  0  0  0
  1 21  1  0  0  0  0
  1 22  1  0  0  0  0
  2 23  1  0  0  0  0
  2 24  1  0  0  0  0
  7 25  1  0  0  0  0
  7 26  1  0  0  0  0
  8 27  1  0  0  0  0
  8 28  1  0  0  0  0
  8 29  1  0  0  0  0
 10 30  1  0  0  0  0
 10 31  1  0  0  0  0
 15 32  1  0  0  0  0
 15 33  1  0  0  0  0
 16 34  1  0  0  0  0
 16 35  1  0  0  0  0
 16 36  1  0  0  0  0
 18 37  1  0  0  0  0
 18 38  1  0  0  0  0
 19 39  1  0  0  0  0
 19 40  1  0  0  0  0
 19 41  1  0  0  0  0
M  END
