 xtb: 6.7.1 (edcfbbe)
          04092505213D

 41 40  0     0  0            999 V2000
    1.3729   -2.1153    1.9862 C   0  0  0  0  0  0  0  0  0  0  0  0
    2.8592   -1.9299    1.7616 C   0  0  0  0  0  0  0  0  0  0  0  0
    3.1771   -0.6085    1.2888 O   0  0  0  0  0  0  0  0  0  0  0  0
    2.7921   -0.0980   -0.1701 P   0  0  0  0  0  0  0  0  0  0  0  0
    2.9771   -1.4096   -1.6068 S   0  0  0  0  0  0  0  0  0  0  0  0
    3.7746    1.1218   -0.3412 O   0  0  0  0  0  0  0  0  0  0  0  0
    3.8738    2.1832    0.6433 C   0  0  0  0  0  0  0  0  0  0  0  0
    4.5825    3.3510   -0.0094 C   0  0  0  0  0  0  0  0  0  0  0  0
    0.8698    0.8404    0.0319 S   0  0  0  0  0  0  0  0  0  0  0  0
   -0.0307   -0.0288   -1.2759 C   0  0  0  0  0  0  0  0  0  0  0  0
   -1.2418   -1.2080   -0.6363 S   0  0  0  0  0  0  0  0  0  0  0  0
   -2.7321    0.2482   -0.1749 P   0  0  0  0  0  0  0  0  0  0  0  0
   -2.9992    1.6428   -1.5192 S   0  0  0  0  0  0  0  0  0  0  0  0
   -2.3093    0.8546    1.2149 O   0  0  0  0  0  0  0  0  0  0  0  0
   -2.1040    0.0487    2.4052 C   0  0  0  0  0  0  0  0  0  0  0  0
   -1.1551    0.8023    3.3136 C   0  0  0  0  0  0  0  0  0  0  0  0
   -4.0072   -0.6189    0.2125 O   0  0  0  0  0  0  0  0  0  0  0  0
   -4.9709   -1.0729   -0.7553 C   0  0  0  0  0  0  0  0  0  0  0  0
   -4.3763   -2.0509   -1.7476 C   0  0  0  0  0  0  0  0  0  0  0  0
    0.9884   -1.3267    2.6277 H   0  0  0  0  0  0  0  0  0  0  0  0
    0.8442   -2.0947    1.0336 H   0  0  0  0  0  0  0  0  0  0  0  0
    1.1998   -3.0779    2.4564 H   0  0  0  0  0  0  0  0  0  0  0  0
    3.2342   -2.6570    1.0348 H   0  0  0  0  0  0  0  0  0  0  0  0
    3.4203   -2.0127    2.6936 H   0  0  0  0  0  0  0  0  0  0  0  0
    2.8634    2.4547    0.9633 H   0  0  0  0  0  0  0  0  0  0  0  0
    4.4328    1.7963    1.4972 H   0  0  0  0  0  0  0  0  0  0  0  0
    5.5634    3.0419   -0.3589 H   0  0  0  0  0  0  0  0  0  0  0  0
    4.0077    3.7117   -0.8579 H   0  0  0  0  0  0  0  0  0  0  0  0
    4.6932    4.1512    0.7152 H   0  0  0  0  0  0  0  0  0  0  0  0
    0.6821   -0.5929   -1.8820 H   0  0  0  0  0  0  0  0  0  0  0  0
   -0.5574    0.7181   -1.8713 H   0  0  0  0  0  0  0  0  0  0  0  0
   -3.0788   -0.1011    2.8725 H   0  0  0  0  0  0  0  0  0  0  0  0
   -1.6947   -0.9207    2.1055 H   0  0  0  0  0  0  0  0  0  0  0  0
   -1.5799    1.7666    3.5763 H   0  0  0  0  0  0  0  0  0  0  0  0
   -0.9895    0.2234    4.2166 H   0  0  0  0  0  0  0  0  0  0  0  0
   -0.2084    0.9710    2.8060 H   0  0  0  0  0  0  0  0  0  0  0  0
   -5.7474   -1.5383   -0.1466 H   0  0  0  0  0  0  0  0  0  0  0  0
   -5.3768   -0.1986   -1.2731 H   0  0  0  0  0  0  0  0  0  0  0  0
   -3.8715   -2.8608   -1.2269 H   0  0  0  0  0  0  0  0  0  0  0  0
   -5.1687   -2.4584   -2.3670 H   0  0  0  0  0  0  0  0  0  0  0  0
   -3.6571   -1.5423   -2.3882 H   0  0  0  0  0  0  0  0  0  0  0  0
  1  2  1  0  0  0  0
  2  3  1  0  0  0  0
  3  4  2  0  0  0  0
  4  5  2  0  0  0  0
  4  6  2  0  0  0  0
  6  7  1  0  0  0  0
  7  8  1  0  0  0  0
  4  9  1  0  0  0  0
  9 10  1  0  0  0  0
 10 11  1  0  0  0  0
 11 12  1  0  0  0  0
 12 13  2  0  0  0  0
 12 14  2  0  0  0  0
 14 15  1  0  0  0  0
 15 16  1  0  0  0  0
 12 17  2  0  0  0  0
 17 18  1  0  0  0  0
 18 19  1  0  0  0  0
  1 20  1  0  0  0  0
  1 21  1  0  0  0  0
  1 22  1  0  0  0  0
  2 23  1  0  0  0  0
  2 24  1  0  0  0  0
  7 25  1  0  0  0  0
  7 26  1  0  0  0  0
  8 27  1  0  0  0  0
  8 28  1  0  0  0  0
  8 29  1  0  0  0  0
 10 30  1  0  0  0  0
 10 31  1  0  0  0  0
 15 32  1  0  0  0  0
 15 33  1  0  0  0  0
 16 34  1  0  0  0  0
 16 35  1  0  0  0  0
 16 36  1  0  0  0  0
 18 37  1  0  0  0  0
 18 38  1  0  0  0  0
 19 39  1  0  0  0  0
 19 40  1  0  0  0  0
 19 41  1  0  0  0  0
M  END
