 xtb: 6.7.1 (edcfbbe)
          04092505213D

 41 40  0     0  0            999 V2000
    3.6362    0.1368    2.7582 C   0  0  0  0  0  0  0  0  0  0  0  0
    3.5992   -1.1389    1.9418 C   0  0  0  0  0  0  0  0  0  0  0  0
    3.6808   -0.8749    0.5202 O   0  0  0  0  0  0  0  0  0  0  0  0
    2.4806   -0.4072   -0.3992 P   0  0  0  0  0  0  0  0  0  0  0  0
    2.9394   -0.5606   -2.2931 S   0  0  0  0  0  0  0  0  0  0  0  0
    2.0359    1.0556    0.0731 O   0  0  0  0  0  0  0  0  0  0  0  0
    2.3718    2.2416   -0.6624 C   0  0  0  0  0  0  0  0  0  0  0  0
    3.8150    2.6362   -0.4229 C   0  0  0  0  0  0  0  0  0  0  0  0
    0.8336   -1.5430    0.2884 S   0  0  0  0  0  0  0  0  0  0  0  0
   -0.1850   -1.2886   -1.1814 C   0  0  0  0  0  0  0  0  0  0  0  0
   -0.8404    0.4027   -1.3417 S   0  0  0  0  0  0  0  0  0  0  0  0
   -2.5590    0.2342   -0.1220 P   0  0  0  0  0  0  0  0  0  0  0  0
   -3.6105    1.8830   -0.0041 S   0  0  0  0  0  0  0  0  0  0  0  0
   -2.1064   -0.3779    1.2798 O   0  0  0  0  0  0  0  0  0  0  0  0
   -1.8616    0.4521    2.4268 C   0  0  0  0  0  0  0  0  0  0  0  0
   -0.6218    1.3045    2.2562 C   0  0  0  0  0  0  0  0  0  0  0  0
   -3.2066   -1.0364   -0.8218 O   0  0  0  0  0  0  0  0  0  0  0  0
   -4.1439   -1.9275   -0.1756 C   0  0  0  0  0  0  0  0  0  0  0  0
   -5.4099   -1.2187    0.2569 C   0  0  0  0  0  0  0  0  0  0  0  0
    2.7667    0.7527    2.5432 H   0  0  0  0  0  0  0  0  0  0  0  0
    3.6381   -0.1192    3.8131 H   0  0  0  0  0  0  0  0  0  0  0  0
    4.5352    0.7021    2.5269 H   0  0  0  0  0  0  0  0  0  0  0  0
    2.6876   -1.7099    2.1382 H   0  0  0  0  0  0  0  0  0  0  0  0
    4.4726   -1.7636    2.1365 H   0  0  0  0  0  0  0  0  0  0  0  0
    2.1892    2.0602   -1.7264 H   0  0  0  0  0  0  0  0  0  0  0  0
    1.6738    2.9962   -0.2972 H   0  0  0  0  0  0  0  0  0  0  0  0
    4.4721    1.8353   -0.7620 H   0  0  0  0  0  0  0  0  0  0  0  0
    4.0406    3.5390   -0.9816 H   0  0  0  0  0  0  0  0  0  0  0  0
    3.9886    2.8136    0.6349 H   0  0  0  0  0  0  0  0  0  0  0  0
   -1.0097   -1.9932   -1.1310 H   0  0  0  0  0  0  0  0  0  0  0  0
    0.4270   -1.4570   -2.0684 H   0  0  0  0  0  0  0  0  0  0  0  0
   -2.7383    1.0881    2.5860 H   0  0  0  0  0  0  0  0  0  0  0  0
   -1.7549   -0.2580    3.2476 H   0  0  0  0  0  0  0  0  0  0  0  0
   -0.7639    1.9950    1.4245 H   0  0  0  0  0  0  0  0  0  0  0  0
   -0.4474    1.8749    3.1627 H   0  0  0  0  0  0  0  0  0  0  0  0
    0.2425    0.6792    2.0486 H   0  0  0  0  0  0  0  0  0  0  0  0
   -4.3491   -2.6773   -0.9418 H   0  0  0  0  0  0  0  0  0  0  0  0
   -3.6448   -2.3914    0.6783 H   0  0  0  0  0  0  0  0  0  0  0  0
   -6.1091   -1.9442    0.6610 H   0  0  0  0  0  0  0  0  0  0  0  0
   -5.1842   -0.4763    1.0211 H   0  0  0  0  0  0  0  0  0  0  0  0
   -5.8667   -0.7102   -0.5889 H   0  0  0  0  0  0  0  0  0  0  0  0
  1  2  1  0  0  0  0
  2  3  1  0  0  0  0
  3  4  2  0  0  0  0
  4  5  2  0  0  0  0
  4  6  1  0  0  0  0
  6  7  1  0  0  0  0
  7  8  1  0  0  0  0
  4  9  1  0  0  0  0
  9 10  1  0  0  0  0
 10 11  1  0  0  0  0
 11 12  1  0  0  0  0
 12 13  2  0  0  0  0
 12 14  2  0  0  0  0
 14 15  1  0  0  0  0
 15 16  1  0  0  0  0
 12 17  2  0  0  0  0
 17 18  1  0  0  0  0
 18 19  1  0  0  0  0
  1 20  1  0  0  0  0
  1 21  1  0  0  0  0
  1 22  1  0  0  0  0
  2 23  1  0  0  0  0
  2 24  1  0  0  0  0
  7 25  1  0  0  0  0
  7 26  1  0  0  0  0
  8 27  1  0  0  0  0
  8 28  1  0  0  0  0
  8 29  1  0  0  0  0
 10 30  1  0  0  0  0
 10 31  1  0  0  0  0
 15 32  1  0  0  0  0
 15 33  1  0  0  0  0
 16 34  1  0  0  0  0
 16 35  1  0  0  0  0
 16 36  1  0  0  0  0
 18 37  1  0  0  0  0
 18 38  1  0  0  0  0
 19 39  1  0  0  0  0
 19 40  1  0  0  0  0
 19 41  1  0  0  0  0
M  END
