 xtb: 6.7.1 (edcfbbe)
          04092505213D

 41 40  0     0  0            999 V2000
    4.2316   -0.0234   -2.1516 C   0  0  0  0  0  0  0  0  0  0  0  0
    4.3989   -0.3738   -0.6863 C   0  0  0  0  0  0  0  0  0  0  0  0
    3.1379   -0.6171   -0.0419 O   0  0  0  0  0  0  0  0  0  0  0  0
    2.1089    0.5648    0.2654 P   0  0  0  0  0  0  0  0  0  0  0  0
    2.9258    2.2744    0.7575 S   0  0  0  0  0  0  0  0  0  0  0  0
    1.1639   -0.0970    1.3489 O   0  0  0  0  0  0  0  0  0  0  0  0
    1.4240    0.0060    2.7618 C   0  0  0  0  0  0  0  0  0  0  0  0
    2.6231   -0.8213    3.1741 C   0  0  0  0  0  0  0  0  0  0  0  0
    0.7814    0.5899   -1.3815 S   0  0  0  0  0  0  0  0  0  0  0  0
    0.4351   -1.1836   -1.5405 C   0  0  0  0  0  0  0  0  0  0  0  0
   -0.6345   -1.8686   -0.2361 S   0  0  0  0  0  0  0  0  0  0  0  0
   -2.1657   -0.4408   -0.3498 P   0  0  0  0  0  0  0  0  0  0  0  0
   -2.6716    0.2087   -2.1344 S   0  0  0  0  0  0  0  0  0  0  0  0
   -1.6796    0.6450    0.6950 O   0  0  0  0  0  0  0  0  0  0  0  0
   -2.1768    2.0014    0.6958 C   0  0  0  0  0  0  0  0  0  0  0  0
   -1.1415    2.8860    1.3586 C   0  0  0  0  0  0  0  0  0  0  0  0
   -3.3598   -1.1158    0.4558 O   0  0  0  0  0  0  0  0  0  0  0  0
   -4.2398   -2.0852   -0.1506 C   0  0  0  0  0  0  0  0  0  0  0  0
   -5.5522   -2.0682    0.6070 C   0  0  0  0  0  0  0  0  0  0  0  0
    3.6753    0.9088   -2.2487 H   0  0  0  0  0  0  0  0  0  0  0  0
    5.2103    0.1045   -2.6030 H   0  0  0  0  0  0  0  0  0  0  0  0
    3.6953   -0.8087   -2.6780 H   0  0  0  0  0  0  0  0  0  0  0  0
    4.9063    0.4392   -0.1572 H   0  0  0  0  0  0  0  0  0  0  0  0
    4.9496   -1.3059   -0.5531 H   0  0  0  0  0  0  0  0  0  0  0  0
    1.5767    1.0617    3.0091 H   0  0  0  0  0  0  0  0  0  0  0  0
    0.5025   -0.3553    3.2213 H   0  0  0  0  0  0  0  0  0  0  0  0
    2.7140   -0.8079    4.2557 H   0  0  0  0  0  0  0  0  0  0  0  0
    2.5062   -1.8464    2.8321 H   0  0  0  0  0  0  0  0  0  0  0  0
    3.5289   -0.4028    2.7377 H   0  0  0  0  0  0  0  0  0  0  0  0
    1.3612   -1.7516   -1.5026 H   0  0  0  0  0  0  0  0  0  0  0  0
   -0.0623   -1.2903   -2.5034 H   0  0  0  0  0  0  0  0  0  0  0  0
   -2.3607    2.3066   -0.3405 H   0  0  0  0  0  0  0  0  0  0  0  0
   -3.1201    2.0118    1.2469 H   0  0  0  0  0  0  0  0  0  0  0  0
   -1.5022    3.9093    1.3720 H   0  0  0  0  0  0  0  0  0  0  0  0
   -0.9618    2.5533    2.3772 H   0  0  0  0  0  0  0  0  0  0  0  0
   -0.2024    2.8515    0.8089 H   0  0  0  0  0  0  0  0  0  0  0  0
   -4.3813   -1.8168   -1.2030 H   0  0  0  0  0  0  0  0  0  0  0  0
   -3.7558   -3.0631   -0.0898 H   0  0  0  0  0  0  0  0  0  0  0  0
   -5.3773   -2.2886    1.6561 H   0  0  0  0  0  0  0  0  0  0  0  0
   -6.0196   -1.0908    0.5251 H   0  0  0  0  0  0  0  0  0  0  0  0
   -6.2147   -2.8177    0.1866 H   0  0  0  0  0  0  0  0  0  0  0  0
  1  2  1  0  0  0  0
  2  3  1  0  0  0  0
  3  4  2  0  0  0  0
  4  5  2  0  0  0  0
  4  6  2  0  0  0  0
  6  7  1  0  0  0  0
  7  8  1  0  0  0  0
  4  9  1  0  0  0  0
  9 10  1  0  0  0  0
 10 11  1  0  0  0  0
 11 12  1  0  0  0  0
 12 13  2  0  0  0  0
 12 14  2  0  0  0  0
 14 15  1  0  0  0  0
 15 16  1  0  0  0  0
 12 17  2  0  0  0  0
 17 18  1  0  0  0  0
 18 19  1  0  0  0  0
  1 20  1  0  0  0  0
  1 21  1  0  0  0  0
  1 22  1  0  0  0  0
  2 23  1  0  0  0  0
  2 24  1  0  0  0  0
  7 25  1  0  0  0  0
  7 26  1  0  0  0  0
  8 27  1  0  0  0  0
  8 28  1  0  0  0  0
  8 29  1  0  0  0  0
 10 30  1  0  0  0  0
 10 31  1  0  0  0  0
 15 32  1  0  0  0  0
 15 33  1  0  0  0  0
 16 34  1  0  0  0  0
 16 35  1  0  0  0  0
 16 36  1  0  0  0  0
 18 37  1  0  0  0  0
 18 38  1  0  0  0  0
 19 39  1  0  0  0  0
 19 40  1  0  0  0  0
 19 41  1  0  0  0  0
M  END
