 xtb: 6.7.1 (edcfbbe)
          04092505213D

 41 40  0     0  0            999 V2000
    5.4494   -0.4640   -0.8750 C   0  0  0  0  0  0  0  0  0  0  0  0
    4.7688   -0.1731    0.4480 C   0  0  0  0  0  0  0  0  0  0  0  0
    3.4503   -0.7518    0.5156 O   0  0  0  0  0  0  0  0  0  0  0  0
    2.1715   -0.1280   -0.1934 P   0  0  0  0  0  0  0  0  0  0  0  0
    2.0453   -0.2589   -2.1473 S   0  0  0  0  0  0  0  0  0  0  0  0
    2.1538    1.3507    0.3968 O   0  0  0  0  0  0  0  0  0  0  0  0
    1.8930    2.5456   -0.3562 C   0  0  0  0  0  0  0  0  0  0  0  0
    3.1809    3.3193   -0.5556 C   0  0  0  0  0  0  0  0  0  0  0  0
    0.8032   -1.2564    0.9399 S   0  0  0  0  0  0  0  0  0  0  0  0
   -0.2562   -1.9446   -0.3863 C   0  0  0  0  0  0  0  0  0  0  0  0
   -1.9998   -1.8977    0.0622 S   0  0  0  0  0  0  0  0  0  0  0  0
   -2.1760    0.2141    0.2737 P   0  0  0  0  0  0  0  0  0  0  0  0
   -1.1407    1.2949   -0.9901 S   0  0  0  0  0  0  0  0  0  0  0  0
   -1.7865    0.5634    1.7594 O   0  0  0  0  0  0  0  0  0  0  0  0
   -2.0355   -0.2466    2.9349 C   0  0  0  0  0  0  0  0  0  0  0  0
   -3.4954   -0.6077    3.0991 C   0  0  0  0  0  0  0  0  0  0  0  0
   -3.7392    0.4884    0.2486 O   0  0  0  0  0  0  0  0  0  0  0  0
   -4.4775    0.7067   -0.9663 C   0  0  0  0  0  0  0  0  0  0  0  0
   -4.5184   -0.5251   -1.8476 C   0  0  0  0  0  0  0  0  0  0  0  0
    5.4855   -1.5361   -1.0494 H   0  0  0  0  0  0  0  0  0  0  0  0
    4.9031   -0.0022   -1.6955 H   0  0  0  0  0  0  0  0  0  0  0  0
    6.4600   -0.0684   -0.8534 H   0  0  0  0  0  0  0  0  0  0  0  0
    4.6910    0.9030    0.6252 H   0  0  0  0  0  0  0  0  0  0  0  0
    5.2987   -0.6438    1.2782 H   0  0  0  0  0  0  0  0  0  0  0  0
    1.4448    2.2765   -1.3182 H   0  0  0  0  0  0  0  0  0  0  0  0
    1.1638    3.1100    0.2279 H   0  0  0  0  0  0  0  0  0  0  0  0
    3.8717    2.7425   -1.1676 H   0  0  0  0  0  0  0  0  0  0  0  0
    2.9561    4.2522   -1.0623 H   0  0  0  0  0  0  0  0  0  0  0  0
    3.6430    3.5340    0.4043 H   0  0  0  0  0  0  0  0  0  0  0  0
   -0.0043   -2.9920   -0.5314 H   0  0  0  0  0  0  0  0  0  0  0  0
   -0.0838   -1.3671   -1.2993 H   0  0  0  0  0  0  0  0  0  0  0  0
   -1.4095   -1.1414    2.8662 H   0  0  0  0  0  0  0  0  0  0  0  0
   -1.6799    0.3862    3.7492 H   0  0  0  0  0  0  0  0  0  0  0  0
   -3.8164   -1.2583    2.2880 H   0  0  0  0  0  0  0  0  0  0  0  0
   -3.6256   -1.1281    4.0428 H   0  0  0  0  0  0  0  0  0  0  0  0
   -4.1079    0.2900    3.0941 H   0  0  0  0  0  0  0  0  0  0  0  0
   -5.4727    0.9845   -0.6164 H   0  0  0  0  0  0  0  0  0  0  0  0
   -4.0231    1.5468   -1.5010 H   0  0  0  0  0  0  0  0  0  0  0  0
   -5.1986   -0.3500   -2.6750 H   0  0  0  0  0  0  0  0  0  0  0  0
   -3.5267   -0.7318   -2.2472 H   0  0  0  0  0  0  0  0  0  0  0  0
   -4.8546   -1.3881   -1.2788 H   0  0  0  0  0  0  0  0  0  0  0  0
  1  2  1  0  0  0  0
  2  3  1  0  0  0  0
  3  4  2  0  0  0  0
  4  5  2  0  0  0  0
  4  6  2  0  0  0  0
  6  7  1  0  0  0  0
  7  8  1  0  0  0  0
  4  9  1  0  0  0  0
  9 10  1  0  0  0  0
 10 11  1  0  0  0  0
 11 12  1  0  0  0  0
 12 13  2  0  0  0  0
 12 14  2  0  0  0  0
 14 15  1  0  0  0  0
 15 16  1  0  0  0  0
 12 17  2  0  0  0  0
 17 18  1  0  0  0  0
 18 19  1  0  0  0  0
  1 20  1  0  0  0  0
  1 21  1  0  0  0  0
  1 22  1  0  0  0  0
  2 23  1  0  0  0  0
  2 24  1  0  0  0  0
  7 25  1  0  0  0  0
  7 26  1  0  0  0  0
  8 27  1  0  0  0  0
  8 28  1  0  0  0  0
  8 29  1  0  0  0  0
 10 30  1  0  0  0  0
 10 31  1  0  0  0  0
 15 32  1  0  0  0  0
 15 33  1  0  0  0  0
 16 34  1  0  0  0  0
 16 35  1  0  0  0  0
 16 36  1  0  0  0  0
 18 37  1  0  0  0  0
 18 38  1  0  0  0  0
 19 39  1  0  0  0  0
 19 40  1  0  0  0  0
 19 41  1  0  0  0  0
M  END
