 xtb: 6.7.1 (edcfbbe)
          04092505213D

 41 40  0     0  0            999 V2000
    4.0943    0.6731   -2.6503 C   0  0  0  0  0  0  0  0  0  0  0  0
    4.8156   -0.2121   -1.6532 C   0  0  0  0  0  0  0  0  0  0  0  0
    3.9212   -1.1280   -0.9989 O   0  0  0  0  0  0  0  0  0  0  0  0
    2.8475   -0.6388    0.0529 P   0  0  0  0  0  0  0  0  0  0  0  0
    3.4283    0.8725    1.1706 S   0  0  0  0  0  0  0  0  0  0  0  0
    2.6665   -2.0510    0.7444 O   0  0  0  0  0  0  0  0  0  0  0  0
    1.5382   -2.4343    1.5486 C   0  0  0  0  0  0  0  0  0  0  0  0
    1.5111   -1.7191    2.8850 C   0  0  0  0  0  0  0  0  0  0  0  0
    1.0586   -0.3173   -1.0735 S   0  0  0  0  0  0  0  0  0  0  0  0
    0.3802    1.0738   -0.1275 C   0  0  0  0  0  0  0  0  0  0  0  0
   -0.7988    0.5526    1.1546 S   0  0  0  0  0  0  0  0  0  0  0  0
   -2.5561    0.6466   -0.0121 P   0  0  0  0  0  0  0  0  0  0  0  0
   -2.4159    0.4170   -1.9601 S   0  0  0  0  0  0  0  0  0  0  0  0
   -3.0583    2.0742    0.4593 O   0  0  0  0  0  0  0  0  0  0  0  0
   -4.0637    2.8183   -0.2584 C   0  0  0  0  0  0  0  0  0  0  0  0
   -5.4286    2.1705   -0.1559 C   0  0  0  0  0  0  0  0  0  0  0  0
   -3.5723   -0.3325    0.7185 O   0  0  0  0  0  0  0  0  0  0  0  0
   -3.7101   -1.7136    0.3417 C   0  0  0  0  0  0  0  0  0  0  0  0
   -2.4314   -2.4953    0.5638 C   0  0  0  0  0  0  0  0  0  0  0  0
    3.4265    1.3562   -2.1271 H   0  0  0  0  0  0  0  0  0  0  0  0
    4.8218    1.2529   -3.2092 H   0  0  0  0  0  0  0  0  0  0  0  0
    3.5089    0.0676   -3.3378 H   0  0  0  0  0  0  0  0  0  0  0  0
    5.3156    0.3949   -0.8910 H   0  0  0  0  0  0  0  0  0  0  0  0
    5.5420   -0.8611   -2.1440 H   0  0  0  0  0  0  0  0  0  0  0  0
    0.6193   -2.2400    0.9871 H   0  0  0  0  0  0  0  0  0  0  0  0
    1.6683   -3.5105    1.6757 H   0  0  0  0  0  0  0  0  0  0  0  0
    2.4625   -1.8423    3.3959 H   0  0  0  0  0  0  0  0  0  0  0  0
    1.3244   -0.6554    2.7447 H   0  0  0  0  0  0  0  0  0  0  0  0
    0.7173   -2.1334    3.4978 H   0  0  0  0  0  0  0  0  0  0  0  0
   -0.1241    1.7270   -0.8356 H   0  0  0  0  0  0  0  0  0  0  0  0
    1.2011    1.5872    0.3786 H   0  0  0  0  0  0  0  0  0  0  0  0
   -4.0452    3.8018    0.2131 H   0  0  0  0  0  0  0  0  0  0  0  0
   -3.7529    2.8998   -1.3051 H   0  0  0  0  0  0  0  0  0  0  0  0
   -5.6818    1.9931    0.8861 H   0  0  0  0  0  0  0  0  0  0  0  0
   -6.1712    2.8237   -0.6034 H   0  0  0  0  0  0  0  0  0  0  0  0
   -5.4289    1.2191   -0.6857 H   0  0  0  0  0  0  0  0  0  0  0  0
   -4.5222   -2.0778    0.9721 H   0  0  0  0  0  0  0  0  0  0  0  0
   -4.0051   -1.7564   -0.7116 H   0  0  0  0  0  0  0  0  0  0  0  0
   -2.0833   -2.3663    1.5859 H   0  0  0  0  0  0  0  0  0  0  0  0
   -2.6127   -3.5481    0.3726 H   0  0  0  0  0  0  0  0  0  0  0  0
   -1.6622   -2.1415   -0.1235 H   0  0  0  0  0  0  0  0  0  0  0  0
  1  2  1  0  0  0  0
  2  3  1  0  0  0  0
  3  4  2  0  0  0  0
  4  5  2  0  0  0  0
  4  6  2  0  0  0  0
  6  7  1  0  0  0  0
  7  8  1  0  0  0  0
  4  9  1  0  0  0  0
  9 10  1  0  0  0  0
 10 11  1  0  0  0  0
 11 12  1  0  0  0  0
 12 13  2  0  0  0  0
 12 14  2  0  0  0  0
 14 15  1  0  0  0  0
 15 16  1  0  0  0  0
 12 17  2  0  0  0  0
 17 18  1  0  0  0  0
 18 19  1  0  0  0  0
  1 20  1  0  0  0  0
  1 21  1  0  0  0  0
  1 22  1  0  0  0  0
  2 23  1  0  0  0  0
  2 24  1  0  0  0  0
  7 25  1  0  0  0  0
  7 26  1  0  0  0  0
  8 27  1  0  0  0  0
  8 28  1  0  0  0  0
  8 29  1  0  0  0  0
 10 30  1  0  0  0  0
 10 31  1  0  0  0  0
 15 32  1  0  0  0  0
 15 33  1  0  0  0  0
 16 34  1  0  0  0  0
 16 35  1  0  0  0  0
 16 36  1  0  0  0  0
 18 37  1  0  0  0  0
 18 38  1  0  0  0  0
 19 39  1  0  0  0  0
 19 40  1  0  0  0  0
 19 41  1  0  0  0  0
M  END
