 xtb: 6.7.1 (edcfbbe)
          04092505213D

 41 40  0     0  0            999 V2000
    1.6254    1.3987   -1.8912 C   0  0  0  0  0  0  0  0  0  0  0  0
    2.1868    1.9922   -0.6161 C   0  0  0  0  0  0  0  0  0  0  0  0
    1.7073    1.3092    0.5694 O   0  0  0  0  0  0  0  0  0  0  0  0
    2.1289   -0.1341    1.0430 P   0  0  0  0  0  0  0  0  0  0  0  0
    1.8781   -0.3779    2.9684 S   0  0  0  0  0  0  0  0  0  0  0  0
    3.6236   -0.2363    0.5203 O   0  0  0  0  0  0  0  0  0  0  0  0
    4.4429   -1.3811    0.8404 C   0  0  0  0  0  0  0  0  0  0  0  0
    5.8815   -1.0223    0.5296 C   0  0  0  0  0  0  0  0  0  0  0  0
    1.1193   -1.5897   -0.1530 S   0  0  0  0  0  0  0  0  0  0  0  0
   -0.3675   -1.7109    0.8734 C   0  0  0  0  0  0  0  0  0  0  0  0
   -1.2074   -0.1209    1.0925 S   0  0  0  0  0  0  0  0  0  0  0  0
   -2.1714   -0.0061   -0.7978 P   0  0  0  0  0  0  0  0  0  0  0  0
   -1.5673   -1.1080   -2.2893 S   0  0  0  0  0  0  0  0  0  0  0  0
   -2.1287    1.5377   -1.1688 O   0  0  0  0  0  0  0  0  0  0  0  0
   -2.5325    2.5726   -0.2400 C   0  0  0  0  0  0  0  0  0  0  0  0
   -1.3260    3.3803    0.1953 C   0  0  0  0  0  0  0  0  0  0  0  0
   -3.6539   -0.3286   -0.2858 O   0  0  0  0  0  0  0  0  0  0  0  0
   -4.6829   -0.7801   -1.1864 C   0  0  0  0  0  0  0  0  0  0  0  0
   -5.1612    0.3366   -2.0924 C   0  0  0  0  0  0  0  0  0  0  0  0
    0.5383    1.3505   -1.8488 H   0  0  0  0  0  0  0  0  0  0  0  0
    1.9153    2.0220   -2.7312 H   0  0  0  0  0  0  0  0  0  0  0  0
    2.0082    0.3925   -2.0505 H   0  0  0  0  0  0  0  0  0  0  0  0
    1.8444    3.0173   -0.4658 H   0  0  0  0  0  0  0  0  0  0  0  0
    3.2771    1.9589   -0.6163 H   0  0  0  0  0  0  0  0  0  0  0  0
    4.3063   -1.6199    1.9001 H   0  0  0  0  0  0  0  0  0  0  0  0
    4.0998   -2.2247    0.2357 H   0  0  0  0  0  0  0  0  0  0  0  0
    6.1932   -0.1735    1.1317 H   0  0  0  0  0  0  0  0  0  0  0  0
    6.5157   -1.8732    0.7554 H   0  0  0  0  0  0  0  0  0  0  0  0
    5.9832   -0.7676   -0.5213 H   0  0  0  0  0  0  0  0  0  0  0  0
   -0.0868   -2.0404    1.8733 H   0  0  0  0  0  0  0  0  0  0  0  0
   -1.0266   -2.4245    0.3840 H   0  0  0  0  0  0  0  0  0  0  0  0
   -3.2417    3.1919   -0.7923 H   0  0  0  0  0  0  0  0  0  0  0  0
   -3.0318    2.1119    0.6168 H   0  0  0  0  0  0  0  0  0  0  0  0
   -1.6532    4.1846    0.8465 H   0  0  0  0  0  0  0  0  0  0  0  0
   -0.6221    2.7522    0.7379 H   0  0  0  0  0  0  0  0  0  0  0  0
   -0.8303    3.8015   -0.6751 H   0  0  0  0  0  0  0  0  0  0  0  0
   -4.2864   -1.6110   -1.7783 H   0  0  0  0  0  0  0  0  0  0  0  0
   -5.4749   -1.1372   -0.5269 H   0  0  0  0  0  0  0  0  0  0  0  0
   -5.5201    1.1759   -1.5021 H   0  0  0  0  0  0  0  0  0  0  0  0
   -4.3411    0.6715   -2.7269 H   0  0  0  0  0  0  0  0  0  0  0  0
   -5.9662   -0.0305   -2.7212 H   0  0  0  0  0  0  0  0  0  0  0  0
  1  2  1  0  0  0  0
  2  3  1  0  0  0  0
  3  4  2  0  0  0  0
  4  5  2  0  0  0  0
  4  6  2  0  0  0  0
  6  7  1  0  0  0  0
  7  8  1  0  0  0  0
  4  9  1  0  0  0  0
  9 10  1  0  0  0  0
 10 11  1  0  0  0  0
 11 12  1  0  0  0  0
 12 13  2  0  0  0  0
 12 14  2  0  0  0  0
 14 15  1  0  0  0  0
 15 16  1  0  0  0  0
 12 17  1  0  0  0  0
 17 18  1  0  0  0  0
 18 19  1  0  0  0  0
  1 20  1  0  0  0  0
  1 21  1  0  0  0  0
  1 22  1  0  0  0  0
  2 23  1  0  0  0  0
  2 24  1  0  0  0  0
  7 25  1  0  0  0  0
  7 26  1  0  0  0  0
  8 27  1  0  0  0  0
  8 28  1  0  0  0  0
  8 29  1  0  0  0  0
 10 30  1  0  0  0  0
 10 31  1  0  0  0  0
 15 32  1  0  0  0  0
 15 33  1  0  0  0  0
 16 34  1  0  0  0  0
 16 35  1  0  0  0  0
 16 36  1  0  0  0  0
 18 37  1  0  0  0  0
 18 38  1  0  0  0  0
 19 39  1  0  0  0  0
 19 40  1  0  0  0  0
 19 41  1  0  0  0  0
M  END
