 xtb: 6.7.1 (edcfbbe)
          04092505203D

 41 40  0     0  0            999 V2000
    4.2528    1.0849   -2.4613 C   0  0  0  0  0  0  0  0  0  0  0  0
    4.4585    0.5012   -1.0780 C   0  0  0  0  0  0  0  0  0  0  0  0
    3.5398    1.1072   -0.1344 O   0  0  0  0  0  0  0  0  0  0  0  0
    2.2866    0.3571    0.4771 P   0  0  0  0  0  0  0  0  0  0  0  0
    1.4328    1.5122    1.7981 S   0  0  0  0  0  0  0  0  0  0  0  0
    2.8388   -1.0365    1.0322 O   0  0  0  0  0  0  0  0  0  0  0  0
    2.8283   -1.4164    2.4251 C   0  0  0  0  0  0  0  0  0  0  0  0
    1.7975   -2.4971    2.6819 C   0  0  0  0  0  0  0  0  0  0  0  0
    1.2402   -0.2812   -1.2556 S   0  0  0  0  0  0  0  0  0  0  0  0
    0.2365   -1.6098   -0.5326 C   0  0  0  0  0  0  0  0  0  0  0  0
   -0.9657   -1.0347    0.6913 S   0  0  0  0  0  0  0  0  0  0  0  0
   -2.2232    0.0184   -0.6697 P   0  0  0  0  0  0  0  0  0  0  0  0
   -2.3145   -0.7031   -2.4823 S   0  0  0  0  0  0  0  0  0  0  0  0
   -1.7038    1.5092   -0.6561 O   0  0  0  0  0  0  0  0  0  0  0  0
   -1.7232    2.3569    0.5171 C   0  0  0  0  0  0  0  0  0  0  0  0
   -2.9548    3.2372    0.5241 C   0  0  0  0  0  0  0  0  0  0  0  0
   -3.6056    0.1229    0.1083 O   0  0  0  0  0  0  0  0  0  0  0  0
   -4.6206   -0.8952    0.0189 C   0  0  0  0  0  0  0  0  0  0  0  0
   -4.1803   -2.2104    0.6277 C   0  0  0  0  0  0  0  0  0  0  0  0
    4.9945    0.6705   -3.1366 H   0  0  0  0  0  0  0  0  0  0  0  0
    3.2587    0.8440   -2.8328 H   0  0  0  0  0  0  0  0  0  0  0  0
    4.3599    2.1656   -2.4283 H   0  0  0  0  0  0  0  0  0  0  0  0
    5.4507    0.7412   -0.6922 H   0  0  0  0  0  0  0  0  0  0  0  0
    4.3125   -0.5812   -1.0754 H   0  0  0  0  0  0  0  0  0  0  0  0
    3.8391   -1.7741    2.6283 H   0  0  0  0  0  0  0  0  0  0  0  0
    2.6220   -0.5293    3.0321 H   0  0  0  0  0  0  0  0  0  0  0  0
    1.9846   -3.3593    2.0475 H   0  0  0  0  0  0  0  0  0  0  0  0
    1.8630   -2.8023    3.7212 H   0  0  0  0  0  0  0  0  0  0  0  0
    0.7944   -2.1186    2.4905 H   0  0  0  0  0  0  0  0  0  0  0  0
    0.8823   -2.3294   -0.0370 H   0  0  0  0  0  0  0  0  0  0  0  0
   -0.2936   -2.0591   -1.3734 H   0  0  0  0  0  0  0  0  0  0  0  0
   -1.6704    1.7331    1.4139 H   0  0  0  0  0  0  0  0  0  0  0  0
   -0.8084    2.9492    0.4462 H   0  0  0  0  0  0  0  0  0  0  0  0
   -2.8943    3.9169    1.3681 H   0  0  0  0  0  0  0  0  0  0  0  0
   -3.0049    3.8107   -0.3976 H   0  0  0  0  0  0  0  0  0  0  0  0
   -3.8525    2.6314    0.6125 H   0  0  0  0  0  0  0  0  0  0  0  0
   -5.4654   -0.4651    0.5587 H   0  0  0  0  0  0  0  0  0  0  0  0
   -4.8801   -1.0270   -1.0359 H   0  0  0  0  0  0  0  0  0  0  0  0
   -3.8056   -2.0554    1.6365 H   0  0  0  0  0  0  0  0  0  0  0  0
   -5.0266   -2.8891    0.6577 H   0  0  0  0  0  0  0  0  0  0  0  0
   -3.3928   -2.6567    0.0227 H   0  0  0  0  0  0  0  0  0  0  0  0
  1  2  1  0  0  0  0
  2  3  1  0  0  0  0
  3  4  2  0  0  0  0
  4  5  2  0  0  0  0
  4  6  2  0  0  0  0
  6  7  1  0  0  0  0
  7  8  1  0  0  0  0
  4  9  1  0  0  0  0
  9 10  1  0  0  0  0
 10 11  1  0  0  0  0
 11 12  1  0  0  0  0
 12 13  2  0  0  0  0
 12 14  2  0  0  0  0
 14 15  1  0  0  0  0
 15 16  1  0  0  0  0
 12 17  2  0  0  0  0
 17 18  1  0  0  0  0
 18 19  1  0  0  0  0
  1 20  1  0  0  0  0
  1 21  1  0  0  0  0
  1 22  1  0  0  0  0
  2 23  1  0  0  0  0
  2 24  1  0  0  0  0
  7 25  1  0  0  0  0
  7 26  1  0  0  0  0
  8 27  1  0  0  0  0
  8 28  1  0  0  0  0
  8 29  1  0  0  0  0
 10 30  1  0  0  0  0
 10 31  1  0  0  0  0
 15 32  1  0  0  0  0
 15 33  1  0  0  0  0
 16 34  1  0  0  0  0
 16 35  1  0  0  0  0
 16 36  1  0  0  0  0
 18 37  1  0  0  0  0
 18 38  1  0  0  0  0
 19 39  1  0  0  0  0
 19 40  1  0  0  0  0
 19 41  1  0  0  0  0
M  END
