 xtb: 6.7.1 (edcfbbe)
          04092505203D

 41 40  0     0  0            999 V2000
    4.4367    0.6895   -2.1556 C   0  0  0  0  0  0  0  0  0  0  0  0
    3.1792   -0.1141   -2.4104 C   0  0  0  0  0  0  0  0  0  0  0  0
    2.7326   -0.7937   -1.2185 O   0  0  0  0  0  0  0  0  0  0  0  0
    2.1132   -0.0245    0.0160 P   0  0  0  0  0  0  0  0  0  0  0  0
    1.1978    1.6658   -0.4108 S   0  0  0  0  0  0  0  0  0  0  0  0
    3.3686    0.1970    0.9654 O   0  0  0  0  0  0  0  0  0  0  0  0
    3.3399    1.0972    2.0850 C   0  0  0  0  0  0  0  0  0  0  0  0
    2.4004    0.6165    3.1723 C   0  0  0  0  0  0  0  0  0  0  0  0
    1.1531   -1.6630    0.9432 S   0  0  0  0  0  0  0  0  0  0  0  0
    0.1767   -2.3181   -0.4523 C   0  0  0  0  0  0  0  0  0  0  0  0
   -0.5754   -1.0535   -1.5096 S   0  0  0  0  0  0  0  0  0  0  0  0
   -1.9786   -0.2191   -0.1572 P   0  0  0  0  0  0  0  0  0  0  0  0
   -1.4822    0.4161    1.6333 S   0  0  0  0  0  0  0  0  0  0  0  0
   -2.9830   -1.4432   -0.1537 O   0  0  0  0  0  0  0  0  0  0  0  0
   -3.9945   -1.6114    0.8603 C   0  0  0  0  0  0  0  0  0  0  0  0
   -5.1096   -0.5986    0.7092 C   0  0  0  0  0  0  0  0  0  0  0  0
   -2.7040    0.8372   -1.0918 O   0  0  0  0  0  0  0  0  0  0  0  0
   -2.3927    2.2442   -1.1476 C   0  0  0  0  0  0  0  0  0  0  0  0
   -3.3409    3.0337   -0.2662 C   0  0  0  0  0  0  0  0  0  0  0  0
    4.7955    1.1047   -3.0920 H   0  0  0  0  0  0  0  0  0  0  0  0
    4.2200    1.5048   -1.4662 H   0  0  0  0  0  0  0  0  0  0  0  0
    5.2048    0.0563   -1.7194 H   0  0  0  0  0  0  0  0  0  0  0  0
    3.3491   -0.9220   -3.1230 H   0  0  0  0  0  0  0  0  0  0  0  0
    2.3691    0.5313   -2.7653 H   0  0  0  0  0  0  0  0  0  0  0  0
    4.3752    1.1241    2.4272 H   0  0  0  0  0  0  0  0  0  0  0  0
    3.0374    2.0873    1.7274 H   0  0  0  0  0  0  0  0  0  0  0  0
    2.6448   -0.4029    3.4609 H   0  0  0  0  0  0  0  0  0  0  0  0
    2.4812    1.2677    4.0365 H   0  0  0  0  0  0  0  0  0  0  0  0
    1.3695    0.6386    2.8150 H   0  0  0  0  0  0  0  0  0  0  0  0
   -0.5974   -2.9452   -0.0145 H   0  0  0  0  0  0  0  0  0  0  0  0
    0.8312   -2.8958   -1.1011 H   0  0  0  0  0  0  0  0  0  0  0  0
   -4.3495   -2.6317    0.7094 H   0  0  0  0  0  0  0  0  0  0  0  0
   -3.5196   -1.5197    1.8427 H   0  0  0  0  0  0  0  0  0  0  0  0
   -5.5088   -0.6288   -0.3012 H   0  0  0  0  0  0  0  0  0  0  0  0
   -5.8995   -0.8230    1.4191 H   0  0  0  0  0  0  0  0  0  0  0  0
   -4.7277    0.4014    0.9077 H   0  0  0  0  0  0  0  0  0  0  0  0
   -1.3545    2.4068   -0.8459 H   0  0  0  0  0  0  0  0  0  0  0  0
   -2.5085    2.5103   -2.1997 H   0  0  0  0  0  0  0  0  0  0  0  0
   -3.1944    2.7619    0.7773 H   0  0  0  0  0  0  0  0  0  0  0  0
   -3.1343    4.0924   -0.3845 H   0  0  0  0  0  0  0  0  0  0  0  0
   -4.3708    2.8324   -0.5483 H   0  0  0  0  0  0  0  0  0  0  0  0
  1  2  1  0  0  0  0
  2  3  1  0  0  0  0
  3  4  2  0  0  0  0
  4  5  2  0  0  0  0
  4  6  2  0  0  0  0
  6  7  1  0  0  0  0
  7  8  1  0  0  0  0
  4  9  1  0  0  0  0
  9 10  1  0  0  0  0
 10 11  1  0  0  0  0
 11 12  1  0  0  0  0
 12 13  2  0  0  0  0
 12 14  2  0  0  0  0
 14 15  1  0  0  0  0
 15 16  1  0  0  0  0
 12 17  2  0  0  0  0
 17 18  1  0  0  0  0
 18 19  1  0  0  0  0
  1 20  1  0  0  0  0
  1 21  1  0  0  0  0
  1 22  1  0  0  0  0
  2 23  1  0  0  0  0
  2 24  1  0  0  0  0
  7 25  1  0  0  0  0
  7 26  1  0  0  0  0
  8 27  1  0  0  0  0
  8 28  1  0  0  0  0
  8 29  1  0  0  0  0
 10 30  1  0  0  0  0
 10 31  1  0  0  0  0
 15 32  1  0  0  0  0
 15 33  1  0  0  0  0
 16 34  1  0  0  0  0
 16 35  1  0  0  0  0
 16 36  1  0  0  0  0
 18 37  1  0  0  0  0
 18 38  1  0  0  0  0
 19 39  1  0  0  0  0
 19 40  1  0  0  0  0
 19 41  1  0  0  0  0
M  END
