 xtb: 6.7.1 (edcfbbe)
          04092505203D

 41 40  0     0  0            999 V2000
    5.0456   -1.1084    0.0924 C   0  0  0  0  0  0  0  0  0  0  0  0
    4.3228   -1.3502   -1.2159 C   0  0  0  0  0  0  0  0  0  0  0  0
    3.3104   -0.3515   -1.4857 O   0  0  0  0  0  0  0  0  0  0  0  0
    1.9857   -0.1137   -0.6507 P   0  0  0  0  0  0  0  0  0  0  0  0
    0.7192    0.8963   -1.7515 S   0  0  0  0  0  0  0  0  0  0  0  0
    2.3550    0.5876    0.7390 O   0  0  0  0  0  0  0  0  0  0  0  0
    2.3905    2.0142    0.8891 C   0  0  0  0  0  0  0  0  0  0  0  0
    3.6340    2.6046    0.2581 C   0  0  0  0  0  0  0  0  0  0  0  0
    1.4957   -2.0345    0.0429 S   0  0  0  0  0  0  0  0  0  0  0  0
   -0.0371   -1.6749    0.9378 C   0  0  0  0  0  0  0  0  0  0  0  0
   -1.4870   -1.4813   -0.1455 S   0  0  0  0  0  0  0  0  0  0  0  0
   -2.1181    0.4808    0.3949 P   0  0  0  0  0  0  0  0  0  0  0  0
   -0.9694    1.4494    1.6489 S   0  0  0  0  0  0  0  0  0  0  0  0
   -3.6098    0.2998    0.9319 O   0  0  0  0  0  0  0  0  0  0  0  0
   -3.9287    0.0261    2.3045 C   0  0  0  0  0  0  0  0  0  0  0  0
   -3.4525   -1.3422    2.7500 C   0  0  0  0  0  0  0  0  0  0  0  0
   -2.3764    1.2750   -0.9363 O   0  0  0  0  0  0  0  0  0  0  0  0
   -2.7979    0.7301   -2.2073 C   0  0  0  0  0  0  0  0  0  0  0  0
   -4.0591   -0.0980   -2.0987 C   0  0  0  0  0  0  0  0  0  0  0  0
    5.5121   -0.1267    0.0906 H   0  0  0  0  0  0  0  0  0  0  0  0
    4.3491   -1.1696    0.9257 H   0  0  0  0  0  0  0  0  0  0  0  0
    5.8125   -1.8667    0.2162 H   0  0  0  0  0  0  0  0  0  0  0  0
    3.8459   -2.3334   -1.2230 H   0  0  0  0  0  0  0  0  0  0  0  0
    4.9953   -1.2602   -2.0706 H   0  0  0  0  0  0  0  0  0  0  0  0
    1.4871    2.4394    0.4387 H   0  0  0  0  0  0  0  0  0  0  0  0
    2.3567    2.1729    1.9680 H   0  0  0  0  0  0  0  0  0  0  0  0
    3.6335    3.6803    0.4037 H   0  0  0  0  0  0  0  0  0  0  0  0
    4.5251    2.1796    0.7118 H   0  0  0  0  0  0  0  0  0  0  0  0
    3.6383    2.3904   -0.8107 H   0  0  0  0  0  0  0  0  0  0  0  0
    0.0868   -0.7619    1.5279 H   0  0  0  0  0  0  0  0  0  0  0  0
   -0.2060   -2.5430    1.5698 H   0  0  0  0  0  0  0  0  0  0  0  0
   -3.4826    0.8092    2.9261 H   0  0  0  0  0  0  0  0  0  0  0  0
   -5.0164    0.1033    2.3369 H   0  0  0  0  0  0  0  0  0  0  0  0
   -3.8503   -1.5539    3.7373 H   0  0  0  0  0  0  0  0  0  0  0  0
   -3.7894   -2.1060    2.0538 H   0  0  0  0  0  0  0  0  0  0  0  0
   -2.3650   -1.3583    2.7991 H   0  0  0  0  0  0  0  0  0  0  0  0
   -2.9454    1.6211   -2.8194 H   0  0  0  0  0  0  0  0  0  0  0  0
   -1.9673    0.1474   -2.6160 H   0  0  0  0  0  0  0  0  0  0  0  0
   -3.8754   -0.9870   -1.4970 H   0  0  0  0  0  0  0  0  0  0  0  0
   -4.8511    0.4847   -1.6357 H   0  0  0  0  0  0  0  0  0  0  0  0
   -4.3675   -0.4034   -3.0938 H   0  0  0  0  0  0  0  0  0  0  0  0
  1  2  1  0  0  0  0
  2  3  1  0  0  0  0
  3  4  2  0  0  0  0
  4  5  2  0  0  0  0
  4  6  1  0  0  0  0
  6  7  1  0  0  0  0
  7  8  1  0  0  0  0
  4  9  1  0  0  0  0
  9 10  1  0  0  0  0
 10 11  1  0  0  0  0
 11 12  1  0  0  0  0
 12 13  2  0  0  0  0
 12 14  2  0  0  0  0
 14 15  1  0  0  0  0
 15 16  1  0  0  0  0
 12 17  2  0  0  0  0
 17 18  1  0  0  0  0
 18 19  1  0  0  0  0
  1 20  1  0  0  0  0
  1 21  1  0  0  0  0
  1 22  1  0  0  0  0
  2 23  1  0  0  0  0
  2 24  1  0  0  0  0
  7 25  1  0  0  0  0
  7 26  1  0  0  0  0
  8 27  1  0  0  0  0
  8 28  1  0  0  0  0
  8 29  1  0  0  0  0
 10 30  1  0  0  0  0
 10 31  1  0  0  0  0
 15 32  1  0  0  0  0
 15 33  1  0  0  0  0
 16 34  1  0  0  0  0
 16 35  1  0  0  0  0
 16 36  1  0  0  0  0
 18 37  1  0  0  0  0
 18 38  1  0  0  0  0
 19 39  1  0  0  0  0
 19 40  1  0  0  0  0
 19 41  1  0  0  0  0
M  END
