 xtb: 6.7.1 (edcfbbe)
          04092505203D

 41 40  0     0  0            999 V2000
    2.9107    1.1694    3.1677 C   0  0  0  0  0  0  0  0  0  0  0  0
    1.6007    0.5786    2.6917 C   0  0  0  0  0  0  0  0  0  0  0  0
    1.4546    0.7243    1.2640 O   0  0  0  0  0  0  0  0  0  0  0  0
    2.3052   -0.1433    0.2448 P   0  0  0  0  0  0  0  0  0  0  0  0
    2.8542   -1.8941    0.9471 S   0  0  0  0  0  0  0  0  0  0  0  0
    3.4442    0.8939   -0.1392 O   0  0  0  0  0  0  0  0  0  0  0  0
    4.2442    0.8623   -1.3346 C   0  0  0  0  0  0  0  0  0  0  0  0
    4.8939   -0.4846   -1.5758 C   0  0  0  0  0  0  0  0  0  0  0  0
    1.0580   -0.1676   -1.4682 S   0  0  0  0  0  0  0  0  0  0  0  0
    0.0884   -1.6149   -0.9744 C   0  0  0  0  0  0  0  0  0  0  0  0
   -1.0206   -1.2763    0.4125 S   0  0  0  0  0  0  0  0  0  0  0  0
   -2.2630    0.1204   -0.6291 P   0  0  0  0  0  0  0  0  0  0  0  0
   -2.5706   -0.2898   -2.5140 S   0  0  0  0  0  0  0  0  0  0  0  0
   -1.6300    1.5444   -0.4160 O   0  0  0  0  0  0  0  0  0  0  0  0
   -1.4510    2.1463    0.8904 C   0  0  0  0  0  0  0  0  0  0  0  0
   -2.5525    3.1487    1.1634 C   0  0  0  0  0  0  0  0  0  0  0  0
   -3.5536    0.1699    0.2939 O   0  0  0  0  0  0  0  0  0  0  0  0
   -4.4758   -0.9396    0.3438 C   0  0  0  0  0  0  0  0  0  0  0  0
   -5.7440   -0.4571    1.0177 C   0  0  0  0  0  0  0  0  0  0  0  0
    3.7404    0.6179    2.7264 H   0  0  0  0  0  0  0  0  0  0  0  0
    2.9855    2.2111    2.8680 H   0  0  0  0  0  0  0  0  0  0  0  0
    2.9704    1.0956    4.2489 H   0  0  0  0  0  0  0  0  0  0  0  0
    0.7411    1.1070    3.1053 H   0  0  0  0  0  0  0  0  0  0  0  0
    1.5394   -0.4855    2.9427 H   0  0  0  0  0  0  0  0  0  0  0  0
    3.6058    1.1403   -2.1782 H   0  0  0  0  0  0  0  0  0  0  0  0
    4.9905    1.6405   -1.1638 H   0  0  0  0  0  0  0  0  0  0  0  0
    5.5527   -0.4178   -2.4357 H   0  0  0  0  0  0  0  0  0  0  0  0
    5.4685   -0.7912   -0.7050 H   0  0  0  0  0  0  0  0  0  0  0  0
    4.1330   -1.2393   -1.7711 H   0  0  0  0  0  0  0  0  0  0  0  0
    0.7589   -2.4131   -0.6543 H   0  0  0  0  0  0  0  0  0  0  0  0
   -0.5003   -1.9060   -1.8442 H   0  0  0  0  0  0  0  0  0  0  0  0
   -1.4375    1.3543    1.6444 H   0  0  0  0  0  0  0  0  0  0  0  0
   -0.4705    2.6244    0.8416 H   0  0  0  0  0  0  0  0  0  0  0  0
   -2.5745    3.8985    0.3774 H   0  0  0  0  0  0  0  0  0  0  0  0
   -3.5157    2.6464    1.1958 H   0  0  0  0  0  0  0  0  0  0  0  0
   -2.3659    3.6326    2.1169 H   0  0  0  0  0  0  0  0  0  0  0  0
   -4.6663   -1.2785   -0.6796 H   0  0  0  0  0  0  0  0  0  0  0  0
   -4.0048   -1.7495    0.9074 H   0  0  0  0  0  0  0  0  0  0  0  0
   -5.5216   -0.1029    2.0201 H   0  0  0  0  0  0  0  0  0  0  0  0
   -6.1863    0.3533    0.4452 H   0  0  0  0  0  0  0  0  0  0  0  0
   -6.4493   -1.2794    1.0763 H   0  0  0  0  0  0  0  0  0  0  0  0
  1  2  1  0  0  0  0
  2  3  1  0  0  0  0
  3  4  2  0  0  0  0
  4  5  2  0  0  0  0
  4  6  2  0  0  0  0
  6  7  1  0  0  0  0
  7  8  1  0  0  0  0
  4  9  1  0  0  0  0
  9 10  1  0  0  0  0
 10 11  1  0  0  0  0
 11 12  1  0  0  0  0
 12 13  2  0  0  0  0
 12 14  2  0  0  0  0
 14 15  1  0  0  0  0
 15 16  1  0  0  0  0
 12 17  2  0  0  0  0
 17 18  1  0  0  0  0
 18 19  1  0  0  0  0
  1 20  1  0  0  0  0
  1 21  1  0  0  0  0
  1 22  1  0  0  0  0
  2 23  1  0  0  0  0
  2 24  1  0  0  0  0
  7 25  1  0  0  0  0
  7 26  1  0  0  0  0
  8 27  1  0  0  0  0
  8 28  1  0  0  0  0
  8 29  1  0  0  0  0
 10 30  1  0  0  0  0
 10 31  1  0  0  0  0
 15 32  1  0  0  0  0
 15 33  1  0  0  0  0
 16 34  1  0  0  0  0
 16 35  1  0  0  0  0
 16 36  1  0  0  0  0
 18 37  1  0  0  0  0
 18 38  1  0  0  0  0
 19 39  1  0  0  0  0
 19 40  1  0  0  0  0
 19 41  1  0  0  0  0
M  END
