 xtb: 6.7.1 (edcfbbe)
          04032520243D

 17 17  0     0  0            999 V2000
   -1.8178   -0.0424   -0.3599 C   0  0  0  0  0  0  0  0  0  0  0  0
   -1.0511    1.2885   -0.2546 C   0  0  0  0  0  0  0  0  0  0  0  0
    0.2709    1.1585    0.5134 C   0  0  0  0  0  0  0  0  0  0  0  0
    1.0756   -0.0121    0.0299 C   0  0  0  0  0  0  0  0  0  0  0  0
    2.2531    0.0721   -0.2707 O   0  0  0  0  0  0  0  0  0  0  0  0
    0.3133   -1.3059   -0.0502 C   0  0  0  0  0  0  0  0  0  0  0  0
   -1.1289   -1.1625    0.4166 C   0  0  0  0  0  0  0  0  0  0  0  0
   -1.8866   -0.3417   -1.4069 H   0  0  0  0  0  0  0  0  0  0  0  0
   -2.8353    0.0804    0.0109 H   0  0  0  0  0  0  0  0  0  0  0  0
   -0.8309    1.6667   -1.2537 H   0  0  0  0  0  0  0  0  0  0  0  0
   -1.6602    2.0393    0.2488 H   0  0  0  0  0  0  0  0  0  0  0  0
    0.8604    2.0717    0.4228 H   0  0  0  0  0  0  0  0  0  0  0  0
    0.0638    0.9888    1.5723 H   0  0  0  0  0  0  0  0  0  0  0  0
    0.3486   -1.6401   -1.0908 H   0  0  0  0  0  0  0  0  0  0  0  0
    0.8527   -2.0558    0.5330 H   0  0  0  0  0  0  0  0  0  0  0  0
   -1.6603   -2.1007    0.2538 H   0  0  0  0  0  0  0  0  0  0  0  0
   -1.1563   -0.9489    1.4857 H   0  0  0  0  0  0  0  0  0  0  0  0
  1  2  1  0  0  0  0
  2  3  1  0  0  0  0
  3  4  1  0  0  0  0
  4  5  2  0  0  0  0
  4  6  1  0  0  0  0
  1  7  1  0  0  0  0
  6  7  1  0  0  0  0
  1  8  1  0  0  0  0
  1  9  1  0  0  0  0
  2 10  1  0  0  0  0
  2 11  1  0  0  0  0
  3 12  1  0  0  0  0
  3 13  1  0  0  0  0
  6 14  1  0  0  0  0
  6 15  1  0  0  0  0
  7 16  1  0  0  0  0
  7 17  1  0  0  0  0
M  END
