 xtb: 6.7.1 (edcfbbe)
          04092505213D

 41 40  0     0  0            999 V2000
    5.1849   -0.8350   -2.3664 C   0  0  0  0  0  0  0  0  0  0  0  0
    3.7420   -1.1334   -2.0113 C   0  0  0  0  0  0  0  0  0  0  0  0
    3.5033   -0.6553   -0.6725 O   0  0  0  0  0  0  0  0  0  0  0  0
    2.0556   -0.2631   -0.1526 P   0  0  0  0  0  0  0  0  0  0  0  0
    1.0335    0.8202   -1.4332 S   0  0  0  0  0  0  0  0  0  0  0  0
    2.3568    0.3743    1.2609 O   0  0  0  0  0  0  0  0  0  0  0  0
    2.6172    1.7796    1.4490 C   0  0  0  0  0  0  0  0  0  0  0  0
    3.8702    2.2240    0.7266 C   0  0  0  0  0  0  0  0  0  0  0  0
    1.3106   -2.1429    0.4429 S   0  0  0  0  0  0  0  0  0  0  0  0
   -0.3214   -1.6903    1.0916 C   0  0  0  0  0  0  0  0  0  0  0  0
   -1.5354   -1.3242   -0.2148 S   0  0  0  0  0  0  0  0  0  0  0  0
   -2.2378    0.5358    0.5512 P   0  0  0  0  0  0  0  0  0  0  0  0
   -0.9421    1.6303    1.5261 S   0  0  0  0  0  0  0  0  0  0  0  0
   -3.4341    0.1764    1.5109 O   0  0  0  0  0  0  0  0  0  0  0  0
   -4.5737   -0.6280    1.1068 C   0  0  0  0  0  0  0  0  0  0  0  0
   -4.5220   -1.9818    1.7862 C   0  0  0  0  0  0  0  0  0  0  0  0
   -3.0052    1.2178   -0.6565 O   0  0  0  0  0  0  0  0  0  0  0  0
   -2.3904    1.8134   -1.8155 C   0  0  0  0  0  0  0  0  0  0  0  0
   -2.3660    0.8398   -2.9765 C   0  0  0  0  0  0  0  0  0  0  0  0
    5.8473   -1.3056   -1.6459 H   0  0  0  0  0  0  0  0  0  0  0  0
    5.3945   -1.2246   -3.3571 H   0  0  0  0  0  0  0  0  0  0  0  0
    5.3607    0.2372   -2.3588 H   0  0  0  0  0  0  0  0  0  0  0  0
    3.5416   -2.2076   -2.0257 H   0  0  0  0  0  0  0  0  0  0  0  0
    3.0482   -0.6285   -2.6925 H   0  0  0  0  0  0  0  0  0  0  0  0
    1.7420    2.3423    1.1085 H   0  0  0  0  0  0  0  0  0  0  0  0
    2.7089    1.8803    2.5312 H   0  0  0  0  0  0  0  0  0  0  0  0
    4.7112    1.5997    1.0172 H   0  0  0  0  0  0  0  0  0  0  0  0
    3.7236    2.1427   -0.3500 H   0  0  0  0  0  0  0  0  0  0  0  0
    4.0802    3.2591    0.9768 H   0  0  0  0  0  0  0  0  0  0  0  0
   -0.2259   -0.8114    1.7340 H   0  0  0  0  0  0  0  0  0  0  0  0
   -0.6598   -2.5585    1.6507 H   0  0  0  0  0  0  0  0  0  0  0  0
   -5.4453   -0.0549    1.4259 H   0  0  0  0  0  0  0  0  0  0  0  0
   -4.5763   -0.7263    0.0197 H   0  0  0  0  0  0  0  0  0  0  0  0
   -3.6821   -2.5634    1.4148 H   0  0  0  0  0  0  0  0  0  0  0  0
   -4.4185   -1.8543    2.8602 H   0  0  0  0  0  0  0  0  0  0  0  0
   -5.4424   -2.5173    1.5765 H   0  0  0  0  0  0  0  0  0  0  0  0
   -3.0152    2.6806   -2.0370 H   0  0  0  0  0  0  0  0  0  0  0  0
   -1.3803    2.1474   -1.5624 H   0  0  0  0  0  0  0  0  0  0  0  0
   -3.3664    0.4658   -3.1742 H   0  0  0  0  0  0  0  0  0  0  0  0
   -1.9902    1.3535   -3.8552 H   0  0  0  0  0  0  0  0  0  0  0  0
   -1.7074    0.0027   -2.7568 H   0  0  0  0  0  0  0  0  0  0  0  0
  1  2  1  0  0  0  0
  2  3  1  0  0  0  0
  3  4  2  0  0  0  0
  4  5  2  0  0  0  0
  4  6  2  0  0  0  0
  6  7  1  0  0  0  0
  7  8  1  0  0  0  0
  4  9  1  0  0  0  0
  9 10  1  0  0  0  0
 10 11  1  0  0  0  0
 11 12  1  0  0  0  0
 12 13  2  0  0  0  0
 12 14  2  0  0  0  0
 14 15  1  0  0  0  0
 15 16  1  0  0  0  0
 12 17  2  0  0  0  0
 17 18  1  0  0  0  0
 18 19  1  0  0  0  0
  1 20  1  0  0  0  0
  1 21  1  0  0  0  0
  1 22  1  0  0  0  0
  2 23  1  0  0  0  0
  2 24  1  0  0  0  0
  7 25  1  0  0  0  0
  7 26  1  0  0  0  0
  8 27  1  0  0  0  0
  8 28  1  0  0  0  0
  8 29  1  0  0  0  0
 10 30  1  0  0  0  0
 10 31  1  0  0  0  0
 15 32  1  0  0  0  0
 15 33  1  0  0  0  0
 16 34  1  0  0  0  0
 16 35  1  0  0  0  0
 16 36  1  0  0  0  0
 18 37  1  0  0  0  0
 18 38  1  0  0  0  0
 19 39  1  0  0  0  0
 19 40  1  0  0  0  0
 19 41  1  0  0  0  0
M  END
