 xtb: 6.7.1 (edcfbbe)
          04092505203D

 41 40  0     0  0            999 V2000
    5.1277   -0.4642   -1.2862 C   0  0  0  0  0  0  0  0  0  0  0  0
    4.4499   -0.5765    0.0646 C   0  0  0  0  0  0  0  0  0  0  0  0
    3.4663    0.4547    0.2718 O   0  0  0  0  0  0  0  0  0  0  0  0
    2.0278    0.5027   -0.4080 P   0  0  0  0  0  0  0  0  0  0  0  0
    1.9411    0.8124   -2.3366 S   0  0  0  0  0  0  0  0  0  0  0  0
    1.3543    1.6683    0.4063 O   0  0  0  0  0  0  0  0  0  0  0  0
    1.3414    1.7194    1.8538 C   0  0  0  0  0  0  0  0  0  0  0  0
    2.3771    2.7031    2.3566 C   0  0  0  0  0  0  0  0  0  0  0  0
    1.1989   -1.3410    0.2651 S   0  0  0  0  0  0  0  0  0  0  0  0
    0.1112   -1.7579   -1.1300 C   0  0  0  0  0  0  0  0  0  0  0  0
   -1.5940   -2.0519   -0.6146 S   0  0  0  0  0  0  0  0  0  0  0  0
   -2.0582   -0.0756    0.0228 P   0  0  0  0  0  0  0  0  0  0  0  0
   -1.4299    1.3610   -1.1508 S   0  0  0  0  0  0  0  0  0  0  0  0
   -1.5448    0.0672    1.5040 O   0  0  0  0  0  0  0  0  0  0  0  0
   -1.9896   -0.8352    2.5595 C   0  0  0  0  0  0  0  0  0  0  0  0
   -0.8161   -1.1472    3.4640 C   0  0  0  0  0  0  0  0  0  0  0  0
   -3.6307   -0.1542    0.2291 O   0  0  0  0  0  0  0  0  0  0  0  0
   -4.5339   -0.2263   -0.8936 C   0  0  0  0  0  0  0  0  0  0  0  0
   -5.9203    0.1275   -0.3955 C   0  0  0  0  0  0  0  0  0  0  0  0
    4.4105   -0.6281   -2.0877 H   0  0  0  0  0  0  0  0  0  0  0  0
    5.5580    0.5263   -1.4098 H   0  0  0  0  0  0  0  0  0  0  0  0
    5.9141   -1.2089   -1.3541 H   0  0  0  0  0  0  0  0  0  0  0  0
    5.1617   -0.4191    0.8773 H   0  0  0  0  0  0  0  0  0  0  0  0
    3.9679   -1.5509    0.1820 H   0  0  0  0  0  0  0  0  0  0  0  0
    0.3267    2.0343    2.1077 H   0  0  0  0  0  0  0  0  0  0  0  0
    1.5230    0.7144    2.2453 H   0  0  0  0  0  0  0  0  0  0  0  0
    2.3109    2.7674    3.4382 H   0  0  0  0  0  0  0  0  0  0  0  0
    3.3736    2.3748    2.0733 H   0  0  0  0  0  0  0  0  0  0  0  0
    2.1966    3.6840    1.9253 H   0  0  0  0  0  0  0  0  0  0  0  0
    0.4593   -2.6896   -1.5688 H   0  0  0  0  0  0  0  0  0  0  0  0
    0.1521   -0.9396   -1.8552 H   0  0  0  0  0  0  0  0  0  0  0  0
   -2.7874   -0.3178    3.0938 H   0  0  0  0  0  0  0  0  0  0  0  0
   -2.3890   -1.7432    2.0999 H   0  0  0  0  0  0  0  0  0  0  0  0
   -0.4183   -0.2325    3.8937 H   0  0  0  0  0  0  0  0  0  0  0  0
   -1.1546   -1.8001    4.2620 H   0  0  0  0  0  0  0  0  0  0  0  0
   -0.0303   -1.6478    2.9036 H   0  0  0  0  0  0  0  0  0  0  0  0
   -4.1899    0.4730   -1.6628 H   0  0  0  0  0  0  0  0  0  0  0  0
   -4.4987   -1.2436   -1.2924 H   0  0  0  0  0  0  0  0  0  0  0  0
   -5.9279    1.1394   -0.0003 H   0  0  0  0  0  0  0  0  0  0  0  0
   -6.6221    0.0598   -1.2201 H   0  0  0  0  0  0  0  0  0  0  0  0
   -6.2184   -0.5609    0.3897 H   0  0  0  0  0  0  0  0  0  0  0  0
  1  2  1  0  0  0  0
  2  3  1  0  0  0  0
  3  4  2  0  0  0  0
  4  5  2  0  0  0  0
  4  6  2  0  0  0  0
  6  7  1  0  0  0  0
  7  8  1  0  0  0  0
  4  9  1  0  0  0  0
  9 10  1  0  0  0  0
 10 11  1  0  0  0  0
 11 12  1  0  0  0  0
 12 13  2  0  0  0  0
 12 14  2  0  0  0  0
 14 15  1  0  0  0  0
 15 16  1  0  0  0  0
 12 17  2  0  0  0  0
 17 18  1  0  0  0  0
 18 19  1  0  0  0  0
  1 20  1  0  0  0  0
  1 21  1  0  0  0  0
  1 22  1  0  0  0  0
  2 23  1  0  0  0  0
  2 24  1  0  0  0  0
  7 25  1  0  0  0  0
  7 26  1  0  0  0  0
  8 27  1  0  0  0  0
  8 28  1  0  0  0  0
  8 29  1  0  0  0  0
 10 30  1  0  0  0  0
 10 31  1  0  0  0  0
 15 32  1  0  0  0  0
 15 33  1  0  0  0  0
 16 34  1  0  0  0  0
 16 35  1  0  0  0  0
 16 36  1  0  0  0  0
 18 37  1  0  0  0  0
 18 38  1  0  0  0  0
 19 39  1  0  0  0  0
 19 40  1  0  0  0  0
 19 41  1  0  0  0  0
M  END
