 xtb: 6.7.1 (edcfbbe)
          04092505203D

 41 40  0     0  0            999 V2000
    5.6554    1.0733   -0.6975 C   0  0  0  0  0  0  0  0  0  0  0  0
    4.3207    0.4960   -1.1225 C   0  0  0  0  0  0  0  0  0  0  0  0
    3.4489    0.5089    0.0269 O   0  0  0  0  0  0  0  0  0  0  0  0
    1.8856    0.2929   -0.1307 P   0  0  0  0  0  0  0  0  0  0  0  0
    0.9795    1.4913   -1.3926 S   0  0  0  0  0  0  0  0  0  0  0  0
    1.3678    0.4953    1.3417 O   0  0  0  0  0  0  0  0  0  0  0  0
    2.0659    0.1100    2.5569 C   0  0  0  0  0  0  0  0  0  0  0  0
    2.1546   -1.3922    2.7247 C   0  0  0  0  0  0  0  0  0  0  0  0
    1.7510   -1.7649   -0.6614 S   0  0  0  0  0  0  0  0  0  0  0  0
   -0.0157   -1.8139   -1.0183 C   0  0  0  0  0  0  0  0  0  0  0  0
   -1.0370   -1.4834    0.4529 S   0  0  0  0  0  0  0  0  0  0  0  0
   -2.2094    0.1499   -0.2458 P   0  0  0  0  0  0  0  0  0  0  0  0
   -2.3470    0.3644   -2.1835 S   0  0  0  0  0  0  0  0  0  0  0  0
   -1.6826    1.4290    0.5119 O   0  0  0  0  0  0  0  0  0  0  0  0
   -1.6988    1.5271    1.9594 C   0  0  0  0  0  0  0  0  0  0  0  0
   -0.9455    2.7835    2.3407 C   0  0  0  0  0  0  0  0  0  0  0  0
   -3.5993   -0.0811    0.5009 O   0  0  0  0  0  0  0  0  0  0  0  0
   -4.6647   -0.8695   -0.0597 C   0  0  0  0  0  0  0  0  0  0  0  0
   -4.2999   -2.3342   -0.1882 C   0  0  0  0  0  0  0  0  0  0  0  0
    6.3307    1.0675   -1.5466 H   0  0  0  0  0  0  0  0  0  0  0  0
    5.5271    2.0944   -0.3494 H   0  0  0  0  0  0  0  0  0  0  0  0
    6.0804    0.4763    0.1040 H   0  0  0  0  0  0  0  0  0  0  0  0
    4.4207   -0.5383   -1.4619 H   0  0  0  0  0  0  0  0  0  0  0  0
    3.8570    1.0901   -1.9168 H   0  0  0  0  0  0  0  0  0  0  0  0
    3.0566    0.5659    2.5395 H   0  0  0  0  0  0  0  0  0  0  0  0
    1.4591    0.5651    3.3416 H   0  0  0  0  0  0  0  0  0  0  0  0
    1.1724   -1.8457    2.6097 H   0  0  0  0  0  0  0  0  0  0  0  0
    2.8274   -1.8222    1.9865 H   0  0  0  0  0  0  0  0  0  0  0  0
    2.5342   -1.6111    3.7179 H   0  0  0  0  0  0  0  0  0  0  0  0
   -0.2257   -2.8238   -1.3613 H   0  0  0  0  0  0  0  0  0  0  0  0
   -0.2660   -1.0755   -1.7856 H   0  0  0  0  0  0  0  0  0  0  0  0
   -2.7406    1.5645    2.2834 H   0  0  0  0  0  0  0  0  0  0  0  0
   -1.2233    0.6300    2.3673 H   0  0  0  0  0  0  0  0  0  0  0  0
   -1.4296    3.6534    1.9058 H   0  0  0  0  0  0  0  0  0  0  0  0
   -0.9311    2.8788    3.4216 H   0  0  0  0  0  0  0  0  0  0  0  0
    0.0728    2.7323    1.9637 H   0  0  0  0  0  0  0  0  0  0  0  0
   -5.4893   -0.7188    0.6385 H   0  0  0  0  0  0  0  0  0  0  0  0
   -4.9218   -0.4513   -1.0376 H   0  0  0  0  0  0  0  0  0  0  0  0
   -5.1807   -2.8947   -0.4843 H   0  0  0  0  0  0  0  0  0  0  0  0
   -3.5321   -2.4588   -0.9503 H   0  0  0  0  0  0  0  0  0  0  0  0
   -3.9268   -2.7178    0.7580 H   0  0  0  0  0  0  0  0  0  0  0  0
  1  2  1  0  0  0  0
  2  3  1  0  0  0  0
  3  4  2  0  0  0  0
  4  5  2  0  0  0  0
  4  6  2  0  0  0  0
  6  7  1  0  0  0  0
  7  8  1  0  0  0  0
  4  9  1  0  0  0  0
  9 10  1  0  0  0  0
 10 11  1  0  0  0  0
 11 12  1  0  0  0  0
 12 13  2  0  0  0  0
 12 14  2  0  0  0  0
 14 15  1  0  0  0  0
 15 16  1  0  0  0  0
 12 17  2  0  0  0  0
 17 18  1  0  0  0  0
 18 19  1  0  0  0  0
  1 20  1  0  0  0  0
  1 21  1  0  0  0  0
  1 22  1  0  0  0  0
  2 23  1  0  0  0  0
  2 24  1  0  0  0  0
  7 25  1  0  0  0  0
  7 26  1  0  0  0  0
  8 27  1  0  0  0  0
  8 28  1  0  0  0  0
  8 29  1  0  0  0  0
 10 30  1  0  0  0  0
 10 31  1  0  0  0  0
 15 32  1  0  0  0  0
 15 33  1  0  0  0  0
 16 34  1  0  0  0  0
 16 35  1  0  0  0  0
 16 36  1  0  0  0  0
 18 37  1  0  0  0  0
 18 38  1  0  0  0  0
 19 39  1  0  0  0  0
 19 40  1  0  0  0  0
 19 41  1  0  0  0  0
M  END
