 xtb: 6.7.1 (edcfbbe)
          04092507313D

 38 37  0     0  0            999 V2000
    4.6027   -3.9778   -1.7446 C   0  0  0  0  0  0  0  0  0  0  0  0
    4.1387   -2.8213   -0.8811 C   0  0  0  0  0  0  0  0  0  0  0  0
    3.1966   -2.0420   -1.6466 O   0  0  0  0  0  0  0  0  0  0  0  0
    2.4074   -1.2117   -1.0067 C   0  0  0  0  0  0  0  0  0  0  0  0
    2.4117   -1.0488    0.1976 O   0  0  0  0  0  0  0  0  0  0  0  0
    1.4879   -0.4608   -1.9461 C   0  0  0  0  0  0  0  0  0  0  0  0
    0.4224    0.2672   -1.1383 C   0  0  0  0  0  0  0  0  0  0  0  0
   -0.1398    0.9608   -1.7729 H   0  0  0  0  0  0  0  0  0  0  0  0
    1.0818    1.0847   -0.0391 C   0  0  0  0  0  0  0  0  0  0  0  0
    2.0314    1.8022   -0.2580 O   0  0  0  0  0  0  0  0  0  0  0  0
    0.4735    0.9650    1.1229 O   0  0  0  0  0  0  0  0  0  0  0  0
    0.9925    1.7085    2.2424 C   0  0  0  0  0  0  0  0  0  0  0  0
    0.3614    3.0879    2.3214 C   0  0  0  0  0  0  0  0  0  0  0  0
   -0.7699   -0.9299   -0.4529 S   0  0  0  0  0  0  0  0  0  0  0  0
   -2.1735    0.4581    0.3368 P   0  0  0  0  0  0  0  0  0  0  0  0
   -2.1607    2.2523   -0.4449 S   0  0  0  0  0  0  0  0  0  0  0  0
   -3.5532   -0.3329    0.1323 O   0  0  0  0  0  0  0  0  0  0  0  0
   -4.0943   -0.5535   -1.1748 C   0  0  0  0  0  0  0  0  0  0  0  0
   -2.1022    0.4629    1.9146 O   0  0  0  0  0  0  0  0  0  0  0  0
   -2.1020   -0.7534    2.6861 C   0  0  0  0  0  0  0  0  0  0  0  0
    5.3297   -4.5658   -1.1946 H   0  0  0  0  0  0  0  0  0  0  0  0
    3.7596   -4.6080   -2.0111 H   0  0  0  0  0  0  0  0  0  0  0  0
    5.0601   -3.6003   -2.6539 H   0  0  0  0  0  0  0  0  0  0  0  0
    4.9698   -2.1666   -0.6020 H   0  0  0  0  0  0  0  0  0  0  0  0
    3.6429   -3.1624    0.0329 H   0  0  0  0  0  0  0  0  0  0  0  0
    1.0449   -1.1523   -2.6617 H   0  0  0  0  0  0  0  0  0  0  0  0
    2.0918    0.2710   -2.4876 H   0  0  0  0  0  0  0  0  0  0  0  0
    0.7396    1.1030    3.1131 H   0  0  0  0  0  0  0  0  0  0  0  0
    2.0776    1.7759    2.1246 H   0  0  0  0  0  0  0  0  0  0  0  0
    0.7237    3.5985    3.2072 H   0  0  0  0  0  0  0  0  0  0  0  0
    0.6214    3.6712    1.4405 H   0  0  0  0  0  0  0  0  0  0  0  0
   -0.7218    3.0004    2.3714 H   0  0  0  0  0  0  0  0  0  0  0  0
   -5.1018   -0.9287   -1.0145 H   0  0  0  0  0  0  0  0  0  0  0  0
   -3.4890   -1.2871   -1.7068 H   0  0  0  0  0  0  0  0  0  0  0  0
   -4.1211    0.3842   -1.7321 H   0  0  0  0  0  0  0  0  0  0  0  0
   -1.2137   -1.3396    2.4496 H   0  0  0  0  0  0  0  0  0  0  0  0
   -2.9997   -1.3310    2.4745 H   0  0  0  0  0  0  0  0  0  0  0  0
   -2.0859   -0.4315    3.7241 H   0  0  0  0  0  0  0  0  0  0  0  0
  1  2  1  0  0  0  0
  2  3  1  0  0  0  0
  3  4  4  0  0  0  0
  4  5  2  0  0  0  0
  4  6  1  0  0  0  0
  6  7  1  0  0  0  0
  7  8  1  0  0  0  0
  7  9  1  0  0  0  0
  9 10  2  0  0  0  0
  9 11  1  0  0  0  0
 11 12  1  0  0  0  0
 12 13  1  0  0  0  0
  7 14  1  0  0  0  0
 14 15  1  0  0  0  0
 15 16  2  0  0  0  0
 15 17  1  0  0  0  0
 17 18  1  0  0  0  0
 15 19  2  0  0  0  0
 19 20  1  0  0  0  0
  1 21  1  0  0  0  0
  1 22  1  0  0  0  0
  1 23  1  0  0  0  0
  2 24  1  0  0  0  0
  2 25  1  0  0  0  0
  6 26  1  0  0  0  0
  6 27  1  0  0  0  0
 12 28  1  0  0  0  0
 12 29  1  0  0  0  0
 13 30  1  0  0  0  0
 13 31  1  0  0  0  0
 13 32  1  0  0  0  0
 18 33  1  0  0  0  0
 18 34  1  0  0  0  0
 18 35  1  0  0  0  0
 20 36  1  0  0  0  0
 20 37  1  0  0  0  0
 20 38  1  0  0  0  0
M  END
