 xtb: 6.7.1 (edcfbbe)
          04092505213D

 41 40  0     0  0            999 V2000
    2.8889    0.8027   -3.2045 C   0  0  0  0  0  0  0  0  0  0  0  0
    3.0073    1.0244   -1.7116 C   0  0  0  0  0  0  0  0  0  0  0  0
    2.5705   -0.1794   -1.0471 O   0  0  0  0  0  0  0  0  0  0  0  0
    2.1514   -0.2180    0.4795 P   0  0  0  0  0  0  0  0  0  0  0  0
    1.1379    1.3591    1.0723 S   0  0  0  0  0  0  0  0  0  0  0  0
    3.5652   -0.3974    1.1846 O   0  0  0  0  0  0  0  0  0  0  0  0
    3.7952   -0.9441    2.4985 C   0  0  0  0  0  0  0  0  0  0  0  0
    2.8340   -0.4164    3.5425 C   0  0  0  0  0  0  0  0  0  0  0  0
    1.3152   -2.1458    0.5876 S   0  0  0  0  0  0  0  0  0  0  0  0
   -0.2332   -1.8799   -0.3137 C   0  0  0  0  0  0  0  0  0  0  0  0
   -1.4765   -0.9733    0.6604 S   0  0  0  0  0  0  0  0  0  0  0  0
   -2.0346    0.4463   -0.8274 P   0  0  0  0  0  0  0  0  0  0  0  0
   -0.6470    0.9837   -2.0951 S   0  0  0  0  0  0  0  0  0  0  0  0
   -2.7990    1.5926   -0.0423 O   0  0  0  0  0  0  0  0  0  0  0  0
   -2.1992    2.5740    0.8248 C   0  0  0  0  0  0  0  0  0  0  0  0
   -2.3044    2.1494    2.2756 C   0  0  0  0  0  0  0  0  0  0  0  0
   -3.2226   -0.2205   -1.6200 O   0  0  0  0  0  0  0  0  0  0  0  0
   -4.4188   -0.7438   -0.9851 C   0  0  0  0  0  0  0  0  0  0  0  0
   -4.4315   -2.2571   -1.0684 C   0  0  0  0  0  0  0  0  0  0  0  0
    3.4503   -0.0808   -3.4937 H   0  0  0  0  0  0  0  0  0  0  0  0
    1.8443    0.6684   -3.4755 H   0  0  0  0  0  0  0  0  0  0  0  0
    3.2814    1.6704   -3.7240 H   0  0  0  0  0  0  0  0  0  0  0  0
    2.3742    1.8558   -1.3831 H   0  0  0  0  0  0  0  0  0  0  0  0
    4.0403    1.2157   -1.4115 H   0  0  0  0  0  0  0  0  0  0  0  0
    3.7228   -2.0322    2.4205 H   0  0  0  0  0  0  0  0  0  0  0  0
    4.8243   -0.6556    2.7205 H   0  0  0  0  0  0  0  0  0  0  0  0
    1.8158   -0.7227    3.3036 H   0  0  0  0  0  0  0  0  0  0  0  0
    3.1044   -0.8172    4.5141 H   0  0  0  0  0  0  0  0  0  0  0  0
    2.8680    0.6702    3.5783 H   0  0  0  0  0  0  0  0  0  0  0  0
   -0.6138   -2.8739   -0.5334 H   0  0  0  0  0  0  0  0  0  0  0  0
   -0.0301   -1.3165   -1.2280 H   0  0  0  0  0  0  0  0  0  0  0  0
   -1.1557    2.7286    0.5369 H   0  0  0  0  0  0  0  0  0  0  0  0
   -2.7680    3.4862    0.6348 H   0  0  0  0  0  0  0  0  0  0  0  0
   -3.3387    1.9375    2.5312 H   0  0  0  0  0  0  0  0  0  0  0  0
   -1.7010    1.2629    2.4557 H   0  0  0  0  0  0  0  0  0  0  0  0
   -1.9328    2.9533    2.9024 H   0  0  0  0  0  0  0  0  0  0  0  0
   -4.4555   -0.4005    0.0505 H   0  0  0  0  0  0  0  0  0  0  0  0
   -5.2460   -0.3065   -1.5461 H   0  0  0  0  0  0  0  0  0  0  0  0
   -3.6389   -2.6798   -0.4561 H   0  0  0  0  0  0  0  0  0  0  0  0
   -5.3883   -2.6225   -0.7091 H   0  0  0  0  0  0  0  0  0  0  0  0
   -4.2913   -2.5727   -2.0985 H   0  0  0  0  0  0  0  0  0  0  0  0
  1  2  1  0  0  0  0
  2  3  1  0  0  0  0
  3  4  2  0  0  0  0
  4  5  2  0  0  0  0
  4  6  2  0  0  0  0
  6  7  1  0  0  0  0
  7  8  1  0  0  0  0
  4  9  1  0  0  0  0
  9 10  1  0  0  0  0
 10 11  1  0  0  0  0
 11 12  1  0  0  0  0
 12 13  2  0  0  0  0
 12 14  2  0  0  0  0
 14 15  1  0  0  0  0
 15 16  1  0  0  0  0
 12 17  2  0  0  0  0
 17 18  1  0  0  0  0
 18 19  1  0  0  0  0
  1 20  1  0  0  0  0
  1 21  1  0  0  0  0
  1 22  1  0  0  0  0
  2 23  1  0  0  0  0
  2 24  1  0  0  0  0
  7 25  1  0  0  0  0
  7 26  1  0  0  0  0
  8 27  1  0  0  0  0
  8 28  1  0  0  0  0
  8 29  1  0  0  0  0
 10 30  1  0  0  0  0
 10 31  1  0  0  0  0
 15 32  1  0  0  0  0
 15 33  1  0  0  0  0
 16 34  1  0  0  0  0
 16 35  1  0  0  0  0
 16 36  1  0  0  0  0
 18 37  1  0  0  0  0
 18 38  1  0  0  0  0
 19 39  1  0  0  0  0
 19 40  1  0  0  0  0
 19 41  1  0  0  0  0
M  END
