 xtb: 6.7.1 (edcfbbe)
          04092505213D

 41 40  0     0  0            999 V2000
    2.4583   -3.1687   -1.1588 C   0  0  0  0  0  0  0  0  0  0  0  0
    3.3589   -2.0800   -1.7038 C   0  0  0  0  0  0  0  0  0  0  0  0
    3.5772   -1.0104   -0.7552 O   0  0  0  0  0  0  0  0  0  0  0  0
    2.4658   -0.0717   -0.1204 P   0  0  0  0  0  0  0  0  0  0  0  0
    3.3041    1.5407    0.5949 S   0  0  0  0  0  0  0  0  0  0  0  0
    1.6631   -0.9567    0.9420 O   0  0  0  0  0  0  0  0  0  0  0  0
    1.9414   -0.9459    2.3566 C   0  0  0  0  0  0  0  0  0  0  0  0
    0.9641   -0.0552    3.0974 C   0  0  0  0  0  0  0  0  0  0  0  0
    1.0287    0.1288   -1.6575 S   0  0  0  0  0  0  0  0  0  0  0  0
    0.4038    1.7581   -1.1795 C   0  0  0  0  0  0  0  0  0  0  0  0
   -0.4500    1.7590    0.4188 S   0  0  0  0  0  0  0  0  0  0  0  0
   -1.9485    0.3576   -0.0922 P   0  0  0  0  0  0  0  0  0  0  0  0
   -2.6435    0.4613   -1.9267 S   0  0  0  0  0  0  0  0  0  0  0  0
   -3.0277    0.5620    1.0539 O   0  0  0  0  0  0  0  0  0  0  0  0
   -3.9600    1.6613    1.0299 C   0  0  0  0  0  0  0  0  0  0  0  0
   -5.1056    1.3211    1.9618 C   0  0  0  0  0  0  0  0  0  0  0  0
   -1.2852   -1.0065    0.3503 O   0  0  0  0  0  0  0  0  0  0  0  0
   -1.6543   -2.2660   -0.2472 C   0  0  0  0  0  0  0  0  0  0  0  0
   -3.0580   -2.6752    0.1449 C   0  0  0  0  0  0  0  0  0  0  0  0
    2.8645   -3.5672   -0.2327 H   0  0  0  0  0  0  0  0  0  0  0  0
    1.4645   -2.7681   -0.9682 H   0  0  0  0  0  0  0  0  0  0  0  0
    2.3836   -3.9665   -1.8911 H   0  0  0  0  0  0  0  0  0  0  0  0
    2.9380   -1.6477   -2.6154 H   0  0  0  0  0  0  0  0  0  0  0  0
    4.3667   -2.4492   -1.9006 H   0  0  0  0  0  0  0  0  0  0  0  0
    1.8392   -1.9881    2.6645 H   0  0  0  0  0  0  0  0  0  0  0  0
    2.9705   -0.6116    2.5192 H   0  0  0  0  0  0  0  0  0  0  0  0
   -0.0569   -0.3252    2.8383 H   0  0  0  0  0  0  0  0  0  0  0  0
    1.1104   -0.1757    4.1660 H   0  0  0  0  0  0  0  0  0  0  0  0
    1.1278    0.9869    2.8310 H   0  0  0  0  0  0  0  0  0  0  0  0
   -0.2876    2.0595   -1.9658 H   0  0  0  0  0  0  0  0  0  0  0  0
    1.2344    2.4570   -1.0846 H   0  0  0  0  0  0  0  0  0  0  0  0
   -3.4337    2.5626    1.3559 H   0  0  0  0  0  0  0  0  0  0  0  0
   -4.3070    1.8020    0.0005 H   0  0  0  0  0  0  0  0  0  0  0  0
   -5.8044    2.1508    1.9841 H   0  0  0  0  0  0  0  0  0  0  0  0
   -5.6196    0.4291    1.6150 H   0  0  0  0  0  0  0  0  0  0  0  0
   -4.7261    1.1425    2.9636 H   0  0  0  0  0  0  0  0  0  0  0  0
   -1.5646   -2.1749   -1.3348 H   0  0  0  0  0  0  0  0  0  0  0  0
   -0.9065   -2.9645    0.1312 H   0  0  0  0  0  0  0  0  0  0  0  0
   -3.1561   -2.6951    1.2270 H   0  0  0  0  0  0  0  0  0  0  0  0
   -3.7739   -1.9610   -0.2607 H   0  0  0  0  0  0  0  0  0  0  0  0
   -3.2738   -3.6596   -0.2585 H   0  0  0  0  0  0  0  0  0  0  0  0
  1  2  1  0  0  0  0
  2  3  1  0  0  0  0
  3  4  2  0  0  0  0
  4  5  2  0  0  0  0
  4  6  1  0  0  0  0
  6  7  1  0  0  0  0
  7  8  1  0  0  0  0
  4  9  1  0  0  0  0
  9 10  1  0  0  0  0
 10 11  1  0  0  0  0
 11 12  1  0  0  0  0
 12 13  2  0  0  0  0
 12 14  2  0  0  0  0
 14 15  1  0  0  0  0
 15 16  1  0  0  0  0
 12 17  2  0  0  0  0
 17 18  1  0  0  0  0
 18 19  1  0  0  0  0
  1 20  1  0  0  0  0
  1 21  1  0  0  0  0
  1 22  1  0  0  0  0
  2 23  1  0  0  0  0
  2 24  1  0  0  0  0
  7 25  1  0  0  0  0
  7 26  1  0  0  0  0
  8 27  1  0  0  0  0
  8 28  1  0  0  0  0
  8 29  1  0  0  0  0
 10 30  1  0  0  0  0
 10 31  1  0  0  0  0
 15 32  1  0  0  0  0
 15 33  1  0  0  0  0
 16 34  1  0  0  0  0
 16 35  1  0  0  0  0
 16 36  1  0  0  0  0
 18 37  1  0  0  0  0
 18 38  1  0  0  0  0
 19 39  1  0  0  0  0
 19 40  1  0  0  0  0
 19 41  1  0  0  0  0
M  END
