 xtb: 6.7.1 (edcfbbe)
          04092505203D

 41 40  0     0  0            999 V2000
    4.1417    1.9334   -1.5508 C   0  0  0  0  0  0  0  0  0  0  0  0
    4.4548    0.5248   -1.0893 C   0  0  0  0  0  0  0  0  0  0  0  0
    3.2672   -0.2770   -0.9520 O   0  0  0  0  0  0  0  0  0  0  0  0
    2.1831   -0.0051    0.1755 P   0  0  0  0  0  0  0  0  0  0  0  0
    2.9083    0.5156    1.9241 S   0  0  0  0  0  0  0  0  0  0  0  0
    1.3309   -1.3398    0.1355 O   0  0  0  0  0  0  0  0  0  0  0  0
    1.5968   -2.4599    0.9992 C   0  0  0  0  0  0  0  0  0  0  0  0
    2.9300   -3.1070    0.6904 C   0  0  0  0  0  0  0  0  0  0  0  0
    0.8093    1.3082   -0.7280 S   0  0  0  0  0  0  0  0  0  0  0  0
   -0.0377    1.8129    0.7959 C   0  0  0  0  0  0  0  0  0  0  0  0
   -0.8768    0.4413    1.6472 S   0  0  0  0  0  0  0  0  0  0  0  0
   -2.1431   -0.2134    0.0928 P   0  0  0  0  0  0  0  0  0  0  0  0
   -1.5649   -1.4509   -1.3171 S   0  0  0  0  0  0  0  0  0  0  0  0
   -2.7722    1.1512   -0.4314 O   0  0  0  0  0  0  0  0  0  0  0  0
   -2.9197    1.5323   -1.8148 C   0  0  0  0  0  0  0  0  0  0  0  0
   -2.1762    2.8240   -2.0889 C   0  0  0  0  0  0  0  0  0  0  0  0
   -3.2145   -0.8324    1.0923 O   0  0  0  0  0  0  0  0  0  0  0  0
   -4.1831   -1.8096    0.6689 C   0  0  0  0  0  0  0  0  0  0  0  0
   -5.2162   -1.2075   -0.2621 C   0  0  0  0  0  0  0  0  0  0  0  0
    3.5301    1.9089   -2.4493 H   0  0  0  0  0  0  0  0  0  0  0  0
    3.6003    2.4690   -0.7721 H   0  0  0  0  0  0  0  0  0  0  0  0
    5.0694    2.4569   -1.7588 H   0  0  0  0  0  0  0  0  0  0  0  0
    4.9718    0.5421   -0.1244 H   0  0  0  0  0  0  0  0  0  0  0  0
    5.0522   -0.0181   -1.8228 H   0  0  0  0  0  0  0  0  0  0  0  0
    1.5609   -2.1102    2.0367 H   0  0  0  0  0  0  0  0  0  0  0  0
    0.7617   -3.1368    0.8091 H   0  0  0  0  0  0  0  0  0  0  0  0
    3.0441   -4.0016    1.2946 H   0  0  0  0  0  0  0  0  0  0  0  0
    2.9822   -3.3694   -0.3632 H   0  0  0  0  0  0  0  0  0  0  0  0
    3.7388   -2.4150    0.9237 H   0  0  0  0  0  0  0  0  0  0  0  0
   -0.7622    2.5756    0.5223 H   0  0  0  0  0  0  0  0  0  0  0  0
    0.6939    2.1964    1.5074 H   0  0  0  0  0  0  0  0  0  0  0  0
   -2.5473    0.7186   -2.4467 H   0  0  0  0  0  0  0  0  0  0  0  0
   -3.9930    1.6570   -1.9737 H   0  0  0  0  0  0  0  0  0  0  0  0
   -2.3898    3.1403   -3.1047 H   0  0  0  0  0  0  0  0  0  0  0  0
   -2.5036    3.5975   -1.3996 H   0  0  0  0  0  0  0  0  0  0  0  0
   -1.1026    2.6776   -1.9844 H   0  0  0  0  0  0  0  0  0  0  0  0
   -3.6553   -2.6331    0.1765 H   0  0  0  0  0  0  0  0  0  0  0  0
   -4.6299   -2.1583    1.6010 H   0  0  0  0  0  0  0  0  0  0  0  0
   -5.6605   -0.3257    0.1924 H   0  0  0  0  0  0  0  0  0  0  0  0
   -4.7434   -0.9257   -1.2025 H   0  0  0  0  0  0  0  0  0  0  0  0
   -5.9913   -1.9402   -0.4633 H   0  0  0  0  0  0  0  0  0  0  0  0
  1  2  1  0  0  0  0
  2  3  1  0  0  0  0
  3  4  2  0  0  0  0
  4  5  2  0  0  0  0
  4  6  2  0  0  0  0
  6  7  1  0  0  0  0
  7  8  1  0  0  0  0
  4  9  1  0  0  0  0
  9 10  1  0  0  0  0
 10 11  1  0  0  0  0
 11 12  1  0  0  0  0
 12 13  2  0  0  0  0
 12 14  2  0  0  0  0
 14 15  1  0  0  0  0
 15 16  1  0  0  0  0
 12 17  2  0  0  0  0
 17 18  1  0  0  0  0
 18 19  1  0  0  0  0
  1 20  1  0  0  0  0
  1 21  1  0  0  0  0
  1 22  1  0  0  0  0
  2 23  1  0  0  0  0
  2 24  1  0  0  0  0
  7 25  1  0  0  0  0
  7 26  1  0  0  0  0
  8 27  1  0  0  0  0
  8 28  1  0  0  0  0
  8 29  1  0  0  0  0
 10 30  1  0  0  0  0
 10 31  1  0  0  0  0
 15 32  1  0  0  0  0
 15 33  1  0  0  0  0
 16 34  1  0  0  0  0
 16 35  1  0  0  0  0
 16 36  1  0  0  0  0
 18 37  1  0  0  0  0
 18 38  1  0  0  0  0
 19 39  1  0  0  0  0
 19 40  1  0  0  0  0
 19 41  1  0  0  0  0
M  END
