 xtb: 6.7.1 (edcfbbe)
          04092505203D

 41 40  0     0  0            999 V2000
    2.6696   -1.6626    2.8528 C   0  0  0  0  0  0  0  0  0  0  0  0
    1.3976   -1.6320    2.0327 C   0  0  0  0  0  0  0  0  0  0  0  0
    1.2972   -0.4100    1.2739 O   0  0  0  0  0  0  0  0  0  0  0  0
    2.1853   -0.1325   -0.0022 P   0  0  0  0  0  0  0  0  0  0  0  0
    2.8985   -1.6936   -0.9549 S   0  0  0  0  0  0  0  0  0  0  0  0
    3.2756    0.8554    0.5915 O   0  0  0  0  0  0  0  0  0  0  0  0
    4.3685    1.3442   -0.2137 C   0  0  0  0  0  0  0  0  0  0  0  0
    5.4183    1.9096    0.7213 C   0  0  0  0  0  0  0  0  0  0  0  0
    0.9421    1.1570   -1.1284 S   0  0  0  0  0  0  0  0  0  0  0  0
    0.1181   -0.1383   -2.0937 C   0  0  0  0  0  0  0  0  0  0  0  0
   -0.8178   -1.3031   -1.0657 S   0  0  0  0  0  0  0  0  0  0  0  0
   -2.1671    0.1128   -0.2591 P   0  0  0  0  0  0  0  0  0  0  0  0
   -2.7574    1.5350   -1.4764 S   0  0  0  0  0  0  0  0  0  0  0  0
   -1.4223    0.5559    1.0611 O   0  0  0  0  0  0  0  0  0  0  0  0
   -1.6042    1.8605    1.6480 C   0  0  0  0  0  0  0  0  0  0  0  0
   -2.9623    1.9797    2.3059 C   0  0  0  0  0  0  0  0  0  0  0  0
   -3.3252   -0.7969    0.3315 O   0  0  0  0  0  0  0  0  0  0  0  0
   -4.3333   -1.3833   -0.5178 C   0  0  0  0  0  0  0  0  0  0  0  0
   -5.4987   -1.7950    0.3588 C   0  0  0  0  0  0  0  0  0  0  0  0
    2.6828   -2.5574    3.4671 H   0  0  0  0  0  0  0  0  0  0  0  0
    3.5323   -1.6756    2.1873 H   0  0  0  0  0  0  0  0  0  0  0  0
    2.7288   -0.7828    3.4878 H   0  0  0  0  0  0  0  0  0  0  0  0
    0.5031   -1.6275    2.6572 H   0  0  0  0  0  0  0  0  0  0  0  0
    1.3591   -2.4785    1.3390 H   0  0  0  0  0  0  0  0  0  0  0  0
    4.7628    0.5120   -0.8067 H   0  0  0  0  0  0  0  0  0  0  0  0
    3.9794    2.1110   -0.8891 H   0  0  0  0  0  0  0  0  0  0  0  0
    6.2382    2.3101    0.1343 H   0  0  0  0  0  0  0  0  0  0  0  0
    4.9866    2.7019    1.3256 H   0  0  0  0  0  0  0  0  0  0  0  0
    5.7945    1.1305    1.3780 H   0  0  0  0  0  0  0  0  0  0  0  0
    0.8625   -0.7276   -2.6280 H   0  0  0  0  0  0  0  0  0  0  0  0
   -0.5582    0.3711   -2.7794 H   0  0  0  0  0  0  0  0  0  0  0  0
   -0.7880    1.9406    2.3674 H   0  0  0  0  0  0  0  0  0  0  0  0
   -1.4814    2.6161    0.8649 H   0  0  0  0  0  0  0  0  0  0  0  0
   -3.0994    1.1833    3.0324 H   0  0  0  0  0  0  0  0  0  0  0  0
   -3.0416    2.9424    2.8008 H   0  0  0  0  0  0  0  0  0  0  0  0
   -3.7422    1.9040    1.5487 H   0  0  0  0  0  0  0  0  0  0  0  0
   -4.6339   -0.6409   -1.2649 H   0  0  0  0  0  0  0  0  0  0  0  0
   -3.8918   -2.2442   -1.0271 H   0  0  0  0  0  0  0  0  0  0  0  0
   -5.1615   -2.4959    1.1167 H   0  0  0  0  0  0  0  0  0  0  0  0
   -5.9257   -0.9245    0.8485 H   0  0  0  0  0  0  0  0  0  0  0  0
   -6.2570   -2.2672   -0.2570 H   0  0  0  0  0  0  0  0  0  0  0  0
  1  2  1  0  0  0  0
  2  3  1  0  0  0  0
  3  4  2  0  0  0  0
  4  5  2  0  0  0  0
  4  6  2  0  0  0  0
  6  7  1  0  0  0  0
  7  8  1  0  0  0  0
  4  9  1  0  0  0  0
  9 10  1  0  0  0  0
 10 11  1  0  0  0  0
 11 12  1  0  0  0  0
 12 13  2  0  0  0  0
 12 14  2  0  0  0  0
 14 15  1  0  0  0  0
 15 16  1  0  0  0  0
 12 17  2  0  0  0  0
 17 18  1  0  0  0  0
 18 19  1  0  0  0  0
  1 20  1  0  0  0  0
  1 21  1  0  0  0  0
  1 22  1  0  0  0  0
  2 23  1  0  0  0  0
  2 24  1  0  0  0  0
  7 25  1  0  0  0  0
  7 26  1  0  0  0  0
  8 27  1  0  0  0  0
  8 28  1  0  0  0  0
  8 29  1  0  0  0  0
 10 30  1  0  0  0  0
 10 31  1  0  0  0  0
 15 32  1  0  0  0  0
 15 33  1  0  0  0  0
 16 34  1  0  0  0  0
 16 35  1  0  0  0  0
 16 36  1  0  0  0  0
 18 37  1  0  0  0  0
 18 38  1  0  0  0  0
 19 39  1  0  0  0  0
 19 40  1  0  0  0  0
 19 41  1  0  0  0  0
M  END
