 xtb: 6.7.1 (edcfbbe)
          04092505203D

 41 40  0     0  0            999 V2000
    5.6475   -1.4808   -1.2940 C   0  0  0  0  0  0  0  0  0  0  0  0
    4.8517   -0.2247   -1.0049 C   0  0  0  0  0  0  0  0  0  0  0  0
    3.6308   -0.6148   -0.3365 O   0  0  0  0  0  0  0  0  0  0  0  0
    2.3198    0.2668   -0.4129 P   0  0  0  0  0  0  0  0  0  0  0  0
    1.8409    0.8802   -2.2178 S   0  0  0  0  0  0  0  0  0  0  0  0
    2.6835    1.4273    0.6141 O   0  0  0  0  0  0  0  0  0  0  0  0
    1.8927    2.6106    0.8192 C   0  0  0  0  0  0  0  0  0  0  0  0
    1.0524    2.4813    2.0739 C   0  0  0  0  0  0  0  0  0  0  0  0
    1.0255   -1.0512    0.5836 S   0  0  0  0  0  0  0  0  0  0  0  0
   -0.0048   -1.5757   -0.8383 C   0  0  0  0  0  0  0  0  0  0  0  0
   -1.7051   -1.8854   -0.3377 S   0  0  0  0  0  0  0  0  0  0  0  0
   -2.1713    0.0738    0.3688 P   0  0  0  0  0  0  0  0  0  0  0  0
   -1.3761    1.5771   -0.6048 S   0  0  0  0  0  0  0  0  0  0  0  0
   -1.7635    0.1094    1.8906 O   0  0  0  0  0  0  0  0  0  0  0  0
   -1.8376   -0.9856    2.8370 C   0  0  0  0  0  0  0  0  0  0  0  0
   -3.2183   -1.5981    2.9201 C   0  0  0  0  0  0  0  0  0  0  0  0
   -3.7583    0.0944    0.4329 O   0  0  0  0  0  0  0  0  0  0  0  0
   -4.5798    0.4823   -0.6807 C   0  0  0  0  0  0  0  0  0  0  0  0
   -4.4840   -0.4933   -1.8362 C   0  0  0  0  0  0  0  0  0  0  0  0
    5.8470   -2.0127   -0.3684 H   0  0  0  0  0  0  0  0  0  0  0  0
    5.0889   -2.1314   -1.9609 H   0  0  0  0  0  0  0  0  0  0  0  0
    6.5867   -1.2070   -1.7636 H   0  0  0  0  0  0  0  0  0  0  0  0
    4.5901    0.3073   -1.9262 H   0  0  0  0  0  0  0  0  0  0  0  0
    5.3938    0.4522   -0.3408 H   0  0  0  0  0  0  0  0  0  0  0  0
    2.6200    3.4195    0.9122 H   0  0  0  0  0  0  0  0  0  0  0  0
    1.2657    2.7853   -0.0618 H   0  0  0  0  0  0  0  0  0  0  0  0
    1.6823    2.2106    2.9166 H   0  0  0  0  0  0  0  0  0  0  0  0
    0.5650    3.4304    2.2725 H   0  0  0  0  0  0  0  0  0  0  0  0
    0.2866    1.7187    1.9446 H   0  0  0  0  0  0  0  0  0  0  0  0
    0.3760   -2.5136   -1.2343 H   0  0  0  0  0  0  0  0  0  0  0  0
    0.0276   -0.7828   -1.5914 H   0  0  0  0  0  0  0  0  0  0  0  0
   -1.0887   -1.7294    2.5493 H   0  0  0  0  0  0  0  0  0  0  0  0
   -1.5462   -0.5173    3.7782 H   0  0  0  0  0  0  0  0  0  0  0  0
   -3.2283   -2.3382    3.7142 H   0  0  0  0  0  0  0  0  0  0  0  0
   -3.9578   -0.8306    3.1327 H   0  0  0  0  0  0  0  0  0  0  0  0
   -3.4739   -2.0831    1.9802 H   0  0  0  0  0  0  0  0  0  0  0  0
   -5.5866    0.5121   -0.2617 H   0  0  0  0  0  0  0  0  0  0  0  0
   -4.2804    1.4859   -0.9994 H   0  0  0  0  0  0  0  0  0  0  0  0
   -4.6618   -1.5086   -1.4915 H   0  0  0  0  0  0  0  0  0  0  0  0
   -5.2223   -0.2320   -2.5875 H   0  0  0  0  0  0  0  0  0  0  0  0
   -3.4937   -0.4427   -2.2864 H   0  0  0  0  0  0  0  0  0  0  0  0
  1  2  1  0  0  0  0
  2  3  1  0  0  0  0
  3  4  2  0  0  0  0
  4  5  2  0  0  0  0
  4  6  2  0  0  0  0
  6  7  1  0  0  0  0
  7  8  1  0  0  0  0
  4  9  1  0  0  0  0
  9 10  1  0  0  0  0
 10 11  1  0  0  0  0
 11 12  1  0  0  0  0
 12 13  2  0  0  0  0
 12 14  2  0  0  0  0
 14 15  1  0  0  0  0
 15 16  1  0  0  0  0
 12 17  2  0  0  0  0
 17 18  1  0  0  0  0
 18 19  1  0  0  0  0
  1 20  1  0  0  0  0
  1 21  1  0  0  0  0
  1 22  1  0  0  0  0
  2 23  1  0  0  0  0
  2 24  1  0  0  0  0
  7 25  1  0  0  0  0
  7 26  1  0  0  0  0
  8 27  1  0  0  0  0
  8 28  1  0  0  0  0
  8 29  1  0  0  0  0
 10 30  1  0  0  0  0
 10 31  1  0  0  0  0
 15 32  1  0  0  0  0
 15 33  1  0  0  0  0
 16 34  1  0  0  0  0
 16 35  1  0  0  0  0
 16 36  1  0  0  0  0
 18 37  1  0  0  0  0
 18 38  1  0  0  0  0
 19 39  1  0  0  0  0
 19 40  1  0  0  0  0
 19 41  1  0  0  0  0
M  END
