 xtb: 6.7.1 (edcfbbe)
          04092505203D

 41 40  0     0  0            999 V2000
    5.4747    0.0064    0.9552 C   0  0  0  0  0  0  0  0  0  0  0  0
    4.4087   -1.0231    0.6409 C   0  0  0  0  0  0  0  0  0  0  0  0
    3.7227   -0.6907   -0.5919 O   0  0  0  0  0  0  0  0  0  0  0  0
    2.3329    0.0470   -0.6484 P   0  0  0  0  0  0  0  0  0  0  0  0
    1.7936    0.2823   -2.5122 S   0  0  0  0  0  0  0  0  0  0  0  0
    2.6166    1.3304    0.2505 O   0  0  0  0  0  0  0  0  0  0  0  0
    1.6355    2.3175    0.6076 C   0  0  0  0  0  0  0  0  0  0  0  0
    1.4910    3.3720   -0.4708 C   0  0  0  0  0  0  0  0  0  0  0  0
    1.0371   -1.1141    0.5851 S   0  0  0  0  0  0  0  0  0  0  0  0
   -0.0890   -1.7822   -0.6843 C   0  0  0  0  0  0  0  0  0  0  0  0
   -1.7681   -1.9391   -0.0583 S   0  0  0  0  0  0  0  0  0  0  0  0
   -2.1462    0.1358    0.2825 P   0  0  0  0  0  0  0  0  0  0  0  0
   -1.5147    1.3306   -1.1366 S   0  0  0  0  0  0  0  0  0  0  0  0
   -1.5019    0.5204    1.6714 O   0  0  0  0  0  0  0  0  0  0  0  0
   -2.0342    0.2023    2.9820 C   0  0  0  0  0  0  0  0  0  0  0  0
   -2.0435   -1.2856    3.2622 C   0  0  0  0  0  0  0  0  0  0  0  0
   -3.7001    0.1906    0.6056 O   0  0  0  0  0  0  0  0  0  0  0  0
   -4.7046    0.3238   -0.4157 C   0  0  0  0  0  0  0  0  0  0  0  0
   -4.7572   -0.8776   -1.3366 C   0  0  0  0  0  0  0  0  0  0  0  0
    6.1691    0.0860    0.1234 H   0  0  0  0  0  0  0  0  0  0  0  0
    5.0217    0.9793    1.1254 H   0  0  0  0  0  0  0  0  0  0  0  0
    6.0141   -0.3008    1.8457 H   0  0  0  0  0  0  0  0  0  0  0  0
    3.6734   -1.0966    1.4474 H   0  0  0  0  0  0  0  0  0  0  0  0
    4.8476   -2.0043    0.4517 H   0  0  0  0  0  0  0  0  0  0  0  0
    0.6759    1.8273    0.8008 H   0  0  0  0  0  0  0  0  0  0  0  0
    2.0156    2.7487    1.5358 H   0  0  0  0  0  0  0  0  0  0  0  0
    1.0743    2.9323   -1.3755 H   0  0  0  0  0  0  0  0  0  0  0  0
    0.8175    4.1491   -0.1237 H   0  0  0  0  0  0  0  0  0  0  0  0
    2.4593    3.8057   -0.7049 H   0  0  0  0  0  0  0  0  0  0  0  0
    0.2324   -2.7842   -0.9575 H   0  0  0  0  0  0  0  0  0  0  0  0
   -0.0657   -1.1100   -1.5479 H   0  0  0  0  0  0  0  0  0  0  0  0
   -1.3580    0.7315    3.6551 H   0  0  0  0  0  0  0  0  0  0  0  0
   -3.0388    0.6227    3.0532 H   0  0  0  0  0  0  0  0  0  0  0  0
   -1.0595   -1.7099    3.0754 H   0  0  0  0  0  0  0  0  0  0  0  0
   -2.3105   -1.4456    4.3021 H   0  0  0  0  0  0  0  0  0  0  0  0
   -2.7701   -1.7889    2.6283 H   0  0  0  0  0  0  0  0  0  0  0  0
   -5.6313    0.4396    0.1483 H   0  0  0  0  0  0  0  0  0  0  0  0
   -4.4981    1.2352   -0.9852 H   0  0  0  0  0  0  0  0  0  0  0  0
   -4.8420   -1.7955   -0.7604 H   0  0  0  0  0  0  0  0  0  0  0  0
   -5.6134   -0.7846   -1.9970 H   0  0  0  0  0  0  0  0  0  0  0  0
   -3.8523   -0.9246   -1.9408 H   0  0  0  0  0  0  0  0  0  0  0  0
  1  2  1  0  0  0  0
  2  3  1  0  0  0  0
  3  4  2  0  0  0  0
  4  5  2  0  0  0  0
  4  6  2  0  0  0  0
  6  7  1  0  0  0  0
  7  8  1  0  0  0  0
  4  9  1  0  0  0  0
  9 10  1  0  0  0  0
 10 11  1  0  0  0  0
 11 12  1  0  0  0  0
 12 13  2  0  0  0  0
 12 14  2  0  0  0  0
 14 15  1  0  0  0  0
 15 16  1  0  0  0  0
 12 17  2  0  0  0  0
 17 18  1  0  0  0  0
 18 19  1  0  0  0  0
  1 20  1  0  0  0  0
  1 21  1  0  0  0  0
  1 22  1  0  0  0  0
  2 23  1  0  0  0  0
  2 24  1  0  0  0  0
  7 25  1  0  0  0  0
  7 26  1  0  0  0  0
  8 27  1  0  0  0  0
  8 28  1  0  0  0  0
  8 29  1  0  0  0  0
 10 30  1  0  0  0  0
 10 31  1  0  0  0  0
 15 32  1  0  0  0  0
 15 33  1  0  0  0  0
 16 34  1  0  0  0  0
 16 35  1  0  0  0  0
 16 36  1  0  0  0  0
 18 37  1  0  0  0  0
 18 38  1  0  0  0  0
 19 39  1  0  0  0  0
 19 40  1  0  0  0  0
 19 41  1  0  0  0  0
M  END
