 xtb: 6.7.1 (edcfbbe)
          04092505213D

 41 40  0     0  0            999 V2000
    5.6376    1.4770   -0.5911 C   0  0  0  0  0  0  0  0  0  0  0  0
    4.3434    0.8844   -1.1099 C   0  0  0  0  0  0  0  0  0  0  0  0
    3.4788    0.6565    0.0224 O   0  0  0  0  0  0  0  0  0  0  0  0
    1.9322    0.3440   -0.1627 P   0  0  0  0  0  0  0  0  0  0  0  0
    0.9397    1.6534   -1.2253 S   0  0  0  0  0  0  0  0  0  0  0  0
    1.4434    0.2460    1.3268 O   0  0  0  0  0  0  0  0  0  0  0  0
    2.0977   -0.6011    2.3117 C   0  0  0  0  0  0  0  0  0  0  0  0
    1.0579   -1.0383    3.3214 C   0  0  0  0  0  0  0  0  0  0  0  0
    1.9805   -1.6321   -0.9550 S   0  0  0  0  0  0  0  0  0  0  0  0
    0.2321   -1.7931   -1.3714 C   0  0  0  0  0  0  0  0  0  0  0  0
   -0.8355   -1.9124    0.1039 S   0  0  0  0  0  0  0  0  0  0  0  0
   -2.0136   -0.1959   -0.1337 P   0  0  0  0  0  0  0  0  0  0  0  0
   -2.3336    0.4126   -1.9756 S   0  0  0  0  0  0  0  0  0  0  0  0
   -1.3571    0.8098    0.8917 O   0  0  0  0  0  0  0  0  0  0  0  0
   -1.8025    2.1821    0.9796 C   0  0  0  0  0  0  0  0  0  0  0  0
   -0.9454    2.8736    2.0174 C   0  0  0  0  0  0  0  0  0  0  0  0
   -3.3507   -0.5680    0.6457 O   0  0  0  0  0  0  0  0  0  0  0  0
   -4.3954   -1.3589    0.0445 C   0  0  0  0  0  0  0  0  0  0  0  0
   -5.6975   -1.0337    0.7483 C   0  0  0  0  0  0  0  0  0  0  0  0
    5.4420    2.4214   -0.0912 H   0  0  0  0  0  0  0  0  0  0  0  0
    6.1016    0.7935    0.1136 H   0  0  0  0  0  0  0  0  0  0  0  0
    6.3104    1.6459   -1.4253 H   0  0  0  0  0  0  0  0  0  0  0  0
    4.5122   -0.0743   -1.6073 H   0  0  0  0  0  0  0  0  0  0  0  0
    3.8365    1.5636   -1.8031 H   0  0  0  0  0  0  0  0  0  0  0  0
    2.5436   -1.4583    1.7989 H   0  0  0  0  0  0  0  0  0  0  0  0
    2.8857   -0.0042    2.7736 H   0  0  0  0  0  0  0  0  0  0  0  0
    1.5380   -1.6409    4.0856 H   0  0  0  0  0  0  0  0  0  0  0  0
    0.5978   -0.1691    3.7824 H   0  0  0  0  0  0  0  0  0  0  0  0
    0.2832   -1.6262    2.8351 H   0  0  0  0  0  0  0  0  0  0  0  0
    0.1380   -2.7211   -1.9293 H   0  0  0  0  0  0  0  0  0  0  0  0
   -0.0935   -0.9373   -1.9698 H   0  0  0  0  0  0  0  0  0  0  0  0
   -1.6869    2.6425   -0.0079 H   0  0  0  0  0  0  0  0  0  0  0  0
   -2.8595    2.1852    1.2575 H   0  0  0  0  0  0  0  0  0  0  0  0
   -1.2422    3.9148    2.0889 H   0  0  0  0  0  0  0  0  0  0  0  0
   -1.0679    2.3907    2.9823 H   0  0  0  0  0  0  0  0  0  0  0  0
    0.0998    2.8162    1.7229 H   0  0  0  0  0  0  0  0  0  0  0  0
   -4.4439   -1.1179   -1.0229 H   0  0  0  0  0  0  0  0  0  0  0  0
   -4.1292   -2.4120    0.1643 H   0  0  0  0  0  0  0  0  0  0  0  0
   -6.4874   -1.6528    0.3360 H   0  0  0  0  0  0  0  0  0  0  0  0
   -5.6022   -1.2304    1.8122 H   0  0  0  0  0  0  0  0  0  0  0  0
   -5.9515    0.0128    0.6037 H   0  0  0  0  0  0  0  0  0  0  0  0
  1  2  1  0  0  0  0
  2  3  1  0  0  0  0
  3  4  2  0  0  0  0
  4  5  2  0  0  0  0
  4  6  2  0  0  0  0
  6  7  1  0  0  0  0
  7  8  1  0  0  0  0
  4  9  1  0  0  0  0
  9 10  1  0  0  0  0
 10 11  1  0  0  0  0
 11 12  1  0  0  0  0
 12 13  2  0  0  0  0
 12 14  2  0  0  0  0
 14 15  1  0  0  0  0
 15 16  1  0  0  0  0
 12 17  2  0  0  0  0
 17 18  1  0  0  0  0
 18 19  1  0  0  0  0
  1 20  1  0  0  0  0
  1 21  1  0  0  0  0
  1 22  1  0  0  0  0
  2 23  1  0  0  0  0
  2 24  1  0  0  0  0
  7 25  1  0  0  0  0
  7 26  1  0  0  0  0
  8 27  1  0  0  0  0
  8 28  1  0  0  0  0
  8 29  1  0  0  0  0
 10 30  1  0  0  0  0
 10 31  1  0  0  0  0
 15 32  1  0  0  0  0
 15 33  1  0  0  0  0
 16 34  1  0  0  0  0
 16 35  1  0  0  0  0
 16 36  1  0  0  0  0
 18 37  1  0  0  0  0
 18 38  1  0  0  0  0
 19 39  1  0  0  0  0
 19 40  1  0  0  0  0
 19 41  1  0  0  0  0
M  END
