 xtb: 6.7.1 (edcfbbe)
          04092507313D

 38 37  0     0  0            999 V2000
    4.9492    0.4725   -1.6579 C   0  0  0  0  0  0  0  0  0  0  0  0
    4.6476   -0.7467   -0.8040 C   0  0  0  0  0  0  0  0  0  0  0  0
    3.2664   -1.1135   -0.9932 O   0  0  0  0  0  0  0  0  0  0  0  0
    2.4890   -1.2757    0.0548 C   0  0  0  0  0  0  0  0  0  0  0  0
    2.8522   -1.2170    1.2078 O   0  0  0  0  0  0  0  0  0  0  0  0
    1.0545   -1.5449   -0.3705 C   0  0  0  0  0  0  0  0  0  0  0  0
    0.5027   -0.3353   -1.1339 C   0  0  0  0  0  0  0  0  0  0  0  0
    1.1016   -0.1573   -2.0296 H   0  0  0  0  0  0  0  0  0  0  0  0
    0.5112    0.8910   -0.2476 C   0  0  0  0  0  0  0  0  0  0  0  0
   -0.5171    1.3928    0.1723 O   0  0  0  0  0  0  0  0  0  0  0  0
    1.7087    1.3131    0.0220 O   0  0  0  0  0  0  0  0  0  0  0  0
    1.8719    2.3904    0.9778 C   0  0  0  0  0  0  0  0  0  0  0  0
    3.2254    2.2315    1.6418 C   0  0  0  0  0  0  0  0  0  0  0  0
   -1.2077   -0.6023   -1.7044 S   0  0  0  0  0  0  0  0  0  0  0  0
   -2.3316   -0.2316    0.0481 P   0  0  0  0  0  0  0  0  0  0  0  0
   -1.7581   -0.6567    1.8884 S   0  0  0  0  0  0  0  0  0  0  0  0
   -3.2151    1.0934   -0.1027 O   0  0  0  0  0  0  0  0  0  0  0  0
   -3.0669    2.2999    0.6441 C   0  0  0  0  0  0  0  0  0  0  0  0
   -3.4280   -1.2906   -0.4674 O   0  0  0  0  0  0  0  0  0  0  0  0
   -4.6057   -1.5755    0.2897 C   0  0  0  0  0  0  0  0  0  0  0  0
    5.9826    0.7679   -1.5095 H   0  0  0  0  0  0  0  0  0  0  0  0
    4.7901    0.2416   -2.7068 H   0  0  0  0  0  0  0  0  0  0  0  0
    4.2958    1.2941   -1.3774 H   0  0  0  0  0  0  0  0  0  0  0  0
    4.8130   -0.5513    0.2588 H   0  0  0  0  0  0  0  0  0  0  0  0
    5.2469   -1.6054   -1.1152 H   0  0  0  0  0  0  0  0  0  0  0  0
    0.4580   -1.7451    0.5223 H   0  0  0  0  0  0  0  0  0  0  0  0
    1.0288   -2.4123   -1.0298 H   0  0  0  0  0  0  0  0  0  0  0  0
    1.7963    3.3315    0.4270 H   0  0  0  0  0  0  0  0  0  0  0  0
    1.0557    2.3299    1.7030 H   0  0  0  0  0  0  0  0  0  0  0  0
    3.3015    1.2442    2.0914 H   0  0  0  0  0  0  0  0  0  0  0  0
    4.0230    2.3511    0.9152 H   0  0  0  0  0  0  0  0  0  0  0  0
    3.3317    2.9838    2.4161 H   0  0  0  0  0  0  0  0  0  0  0  0
   -2.6203    2.0877    1.6166 H   0  0  0  0  0  0  0  0  0  0  0  0
   -4.0711    2.7009    0.7645 H   0  0  0  0  0  0  0  0  0  0  0  0
   -2.4354    2.9938    0.0934 H   0  0  0  0  0  0  0  0  0  0  0  0
   -4.3474   -1.7351    1.3391 H   0  0  0  0  0  0  0  0  0  0  0  0
   -5.0202   -2.4837   -0.1404 H   0  0  0  0  0  0  0  0  0  0  0  0
   -5.3142   -0.7520    0.2046 H   0  0  0  0  0  0  0  0  0  0  0  0
  1  2  1  0  0  0  0
  2  3  1  0  0  0  0
  3  4  4  0  0  0  0
  4  5  2  0  0  0  0
  4  6  1  0  0  0  0
  6  7  1  0  0  0  0
  7  8  1  0  0  0  0
  7  9  1  0  0  0  0
  9 10  2  0  0  0  0
  9 11  4  0  0  0  0
 11 12  1  0  0  0  0
 12 13  1  0  0  0  0
  7 14  1  0  0  0  0
 14 15  1  0  0  0  0
 15 16  2  0  0  0  0
 15 17  2  0  0  0  0
 17 18  1  0  0  0  0
 15 19  1  0  0  0  0
 19 20  1  0  0  0  0
  1 21  1  0  0  0  0
  1 22  1  0  0  0  0
  1 23  1  0  0  0  0
  2 24  1  0  0  0  0
  2 25  1  0  0  0  0
  6 26  1  0  0  0  0
  6 27  1  0  0  0  0
 12 28  1  0  0  0  0
 12 29  1  0  0  0  0
 13 30  1  0  0  0  0
 13 31  1  0  0  0  0
 13 32  1  0  0  0  0
 18 33  1  0  0  0  0
 18 34  1  0  0  0  0
 18 35  1  0  0  0  0
 20 36  1  0  0  0  0
 20 37  1  0  0  0  0
 20 38  1  0  0  0  0
M  END
