 xtb: 6.7.1 (edcfbbe)
          04092505203D

 41 40  0     0  0            999 V2000
    4.6864    1.5495   -0.0925 C   0  0  0  0  0  0  0  0  0  0  0  0
    3.9725    1.0322   -1.3242 C   0  0  0  0  0  0  0  0  0  0  0  0
    3.1453   -0.1157   -1.0557 O   0  0  0  0  0  0  0  0  0  0  0  0
    2.0613   -0.2305    0.0978 P   0  0  0  0  0  0  0  0  0  0  0  0
    2.7070   -0.5847    1.9191 S   0  0  0  0  0  0  0  0  0  0  0  0
    1.1202   -1.3611   -0.4895 O   0  0  0  0  0  0  0  0  0  0  0  0
    1.2181   -2.7403   -0.0940 C   0  0  0  0  0  0  0  0  0  0  0  0
    2.4879   -3.3737   -0.6208 C   0  0  0  0  0  0  0  0  0  0  0  0
    0.8737    1.4942   -0.1627 S   0  0  0  0  0  0  0  0  0  0  0  0
    0.0157    1.3945    1.4291 C   0  0  0  0  0  0  0  0  0  0  0  0
   -1.0450   -0.0713    1.5931 S   0  0  0  0  0  0  0  0  0  0  0  0
   -2.2560    0.1672   -0.1329 P   0  0  0  0  0  0  0  0  0  0  0  0
   -1.6792   -0.4887   -1.8925 S   0  0  0  0  0  0  0  0  0  0  0  0
   -2.5612    1.7129   -0.0202 O   0  0  0  0  0  0  0  0  0  0  0  0
   -2.8314    2.5694   -1.1537 C   0  0  0  0  0  0  0  0  0  0  0  0
   -1.9505    3.7994   -1.0641 C   0  0  0  0  0  0  0  0  0  0  0  0
   -3.6453   -0.4638    0.3262 O   0  0  0  0  0  0  0  0  0  0  0  0
   -3.9592   -1.8502    0.1257 C   0  0  0  0  0  0  0  0  0  0  0  0
   -3.1209   -2.7457    1.0157 C   0  0  0  0  0  0  0  0  0  0  0  0
    3.9646    1.9279    0.6303 H   0  0  0  0  0  0  0  0  0  0  0  0
    5.2591    0.7534    0.3775 H   0  0  0  0  0  0  0  0  0  0  0  0
    5.3565    2.3541   -0.3776 H   0  0  0  0  0  0  0  0  0  0  0  0
    4.6788    0.6681   -2.0725 H   0  0  0  0  0  0  0  0  0  0  0  0
    3.3395    1.8099   -1.7613 H   0  0  0  0  0  0  0  0  0  0  0  0
    1.1773   -2.7938    0.9995 H   0  0  0  0  0  0  0  0  0  0  0  0
    0.3261   -3.1999   -0.5238 H   0  0  0  0  0  0  0  0  0  0  0  0
    2.5049   -4.4262   -0.3565 H   0  0  0  0  0  0  0  0  0  0  0  0
    2.5379   -3.2665   -1.7012 H   0  0  0  0  0  0  0  0  0  0  0  0
    3.3522   -2.8789   -0.1781 H   0  0  0  0  0  0  0  0  0  0  0  0
   -0.5847    2.2954    1.5246 H   0  0  0  0  0  0  0  0  0  0  0  0
    0.7495    1.3142    2.2322 H   0  0  0  0  0  0  0  0  0  0  0  0
   -2.6385    2.0088   -2.0747 H   0  0  0  0  0  0  0  0  0  0  0  0
   -3.8904    2.8283   -1.1005 H   0  0  0  0  0  0  0  0  0  0  0  0
   -0.9010    3.5141   -1.1070 H   0  0  0  0  0  0  0  0  0  0  0  0
   -2.1753    4.4561   -1.8981 H   0  0  0  0  0  0  0  0  0  0  0  0
   -2.1371    4.3268   -0.1330 H   0  0  0  0  0  0  0  0  0  0  0  0
   -5.0211   -1.9208    0.3643 H   0  0  0  0  0  0  0  0  0  0  0  0
   -3.7964   -2.0924   -0.9301 H   0  0  0  0  0  0  0  0  0  0  0  0
   -3.2397   -2.4621    2.0583 H   0  0  0  0  0  0  0  0  0  0  0  0
   -3.4242   -3.7792    0.8832 H   0  0  0  0  0  0  0  0  0  0  0  0
   -2.0680   -2.6468    0.7484 H   0  0  0  0  0  0  0  0  0  0  0  0
  1  2  1  0  0  0  0
  2  3  1  0  0  0  0
  3  4  2  0  0  0  0
  4  5  2  0  0  0  0
  4  6  2  0  0  0  0
  6  7  1  0  0  0  0
  7  8  1  0  0  0  0
  4  9  1  0  0  0  0
  9 10  1  0  0  0  0
 10 11  1  0  0  0  0
 11 12  1  0  0  0  0
 12 13  2  0  0  0  0
 12 14  2  0  0  0  0
 14 15  1  0  0  0  0
 15 16  1  0  0  0  0
 12 17  2  0  0  0  0
 17 18  1  0  0  0  0
 18 19  1  0  0  0  0
  1 20  1  0  0  0  0
  1 21  1  0  0  0  0
  1 22  1  0  0  0  0
  2 23  1  0  0  0  0
  2 24  1  0  0  0  0
  7 25  1  0  0  0  0
  7 26  1  0  0  0  0
  8 27  1  0  0  0  0
  8 28  1  0  0  0  0
  8 29  1  0  0  0  0
 10 30  1  0  0  0  0
 10 31  1  0  0  0  0
 15 32  1  0  0  0  0
 15 33  1  0  0  0  0
 16 34  1  0  0  0  0
 16 35  1  0  0  0  0
 16 36  1  0  0  0  0
 18 37  1  0  0  0  0
 18 38  1  0  0  0  0
 19 39  1  0  0  0  0
 19 40  1  0  0  0  0
 19 41  1  0  0  0  0
M  END
