 xtb: 6.7.1 (edcfbbe)
          04092505203D

 41 40  0     0  0            999 V2000
    3.0979    1.5088   -1.6767 C   0  0  0  0  0  0  0  0  0  0  0  0
    1.8522    1.8145   -0.8756 C   0  0  0  0  0  0  0  0  0  0  0  0
    1.9167    1.3305    0.4873 O   0  0  0  0  0  0  0  0  0  0  0  0
    2.2129   -0.1413    0.9717 P   0  0  0  0  0  0  0  0  0  0  0  0
    1.7850   -0.3663    2.8663 S   0  0  0  0  0  0  0  0  0  0  0  0
    3.7501   -0.3306    0.6160 O   0  0  0  0  0  0  0  0  0  0  0  0
    4.5708   -1.3277    1.2482 C   0  0  0  0  0  0  0  0  0  0  0  0
    4.1614   -2.7364    0.8691 C   0  0  0  0  0  0  0  0  0  0  0  0
    1.1921   -1.4310   -0.3902 S   0  0  0  0  0  0  0  0  0  0  0  0
   -0.3336   -1.5763    0.5792 C   0  0  0  0  0  0  0  0  0  0  0  0
   -1.1500    0.0114    0.8948 S   0  0  0  0  0  0  0  0  0  0  0  0
   -2.1918    0.1569   -0.9709 P   0  0  0  0  0  0  0  0  0  0  0  0
   -1.1342    0.1197   -2.6126 S   0  0  0  0  0  0  0  0  0  0  0  0
   -3.0893    1.4540   -0.7793 O   0  0  0  0  0  0  0  0  0  0  0  0
   -2.5989    2.7760   -1.0667 C   0  0  0  0  0  0  0  0  0  0  0  0
   -1.8263    3.3537    0.1026 C   0  0  0  0  0  0  0  0  0  0  0  0
   -3.2304   -1.0282   -0.9219 O   0  0  0  0  0  0  0  0  0  0  0  0
   -4.2343   -1.1866    0.1128 C   0  0  0  0  0  0  0  0  0  0  0  0
   -5.5452   -0.5531   -0.3045 C   0  0  0  0  0  0  0  0  0  0  0  0
    3.9805    1.8757   -1.1594 H   0  0  0  0  0  0  0  0  0  0  0  0
    3.1942    0.4354   -1.8271 H   0  0  0  0  0  0  0  0  0  0  0  0
    3.0164    1.9913   -2.6459 H   0  0  0  0  0  0  0  0  0  0  0  0
    0.9722    1.3791   -1.3604 H   0  0  0  0  0  0  0  0  0  0  0  0
    1.7086    2.8889   -0.7493 H   0  0  0  0  0  0  0  0  0  0  0  0
    5.5777   -1.0936    0.8999 H   0  0  0  0  0  0  0  0  0  0  0  0
    4.5092   -1.1889    2.3321 H   0  0  0  0  0  0  0  0  0  0  0  0
    4.8878   -3.4392    1.2643 H   0  0  0  0  0  0  0  0  0  0  0  0
    3.1841   -2.9656    1.2912 H   0  0  0  0  0  0  0  0  0  0  0  0
    4.1101   -2.8393   -0.2120 H   0  0  0  0  0  0  0  0  0  0  0  0
   -0.0955   -1.9879    1.5595 H   0  0  0  0  0  0  0  0  0  0  0  0
   -0.9961   -2.2330    0.0189 H   0  0  0  0  0  0  0  0  0  0  0  0
   -1.9782    2.7293   -1.9678 H   0  0  0  0  0  0  0  0  0  0  0  0
   -3.4994    3.3574   -1.2709 H   0  0  0  0  0  0  0  0  0  0  0  0
   -0.9215    2.7777    0.2891 H   0  0  0  0  0  0  0  0  0  0  0  0
   -1.5510    4.3787   -0.1237 H   0  0  0  0  0  0  0  0  0  0  0  0
   -2.4364    3.3362    1.0018 H   0  0  0  0  0  0  0  0  0  0  0  0
   -4.3359   -2.2675    0.2270 H   0  0  0  0  0  0  0  0  0  0  0  0
   -3.8595   -0.7477    1.0415 H   0  0  0  0  0  0  0  0  0  0  0  0
   -5.4312    0.5228   -0.4031 H   0  0  0  0  0  0  0  0  0  0  0  0
   -5.8685   -0.9611   -1.2583 H   0  0  0  0  0  0  0  0  0  0  0  0
   -6.2964   -0.7662    0.4497 H   0  0  0  0  0  0  0  0  0  0  0  0
  1  2  1  0  0  0  0
  2  3  1  0  0  0  0
  3  4  2  0  0  0  0
  4  5  2  0  0  0  0
  4  6  2  0  0  0  0
  6  7  1  0  0  0  0
  7  8  1  0  0  0  0
  4  9  1  0  0  0  0
  9 10  1  0  0  0  0
 10 11  1  0  0  0  0
 11 12  1  0  0  0  0
 12 13  2  0  0  0  0
 12 14  2  0  0  0  0
 14 15  1  0  0  0  0
 15 16  1  0  0  0  0
 12 17  2  0  0  0  0
 17 18  1  0  0  0  0
 18 19  1  0  0  0  0
  1 20  1  0  0  0  0
  1 21  1  0  0  0  0
  1 22  1  0  0  0  0
  2 23  1  0  0  0  0
  2 24  1  0  0  0  0
  7 25  1  0  0  0  0
  7 26  1  0  0  0  0
  8 27  1  0  0  0  0
  8 28  1  0  0  0  0
  8 29  1  0  0  0  0
 10 30  1  0  0  0  0
 10 31  1  0  0  0  0
 15 32  1  0  0  0  0
 15 33  1  0  0  0  0
 16 34  1  0  0  0  0
 16 35  1  0  0  0  0
 16 36  1  0  0  0  0
 18 37  1  0  0  0  0
 18 38  1  0  0  0  0
 19 39  1  0  0  0  0
 19 40  1  0  0  0  0
 19 41  1  0  0  0  0
M  END
