 xtb: 6.7.1 (edcfbbe)
          04092507313D

 38 37  0     0  0            999 V2000
    2.6105   -3.7491   -0.3122 C   0  0  0  0  0  0  0  0  0  0  0  0
    2.8615   -3.0011    0.9875 C   0  0  0  0  0  0  0  0  0  0  0  0
    2.8170   -1.5778    0.7664 O   0  0  0  0  0  0  0  0  0  0  0  0
    1.6612   -0.9615    0.8542 C   0  0  0  0  0  0  0  0  0  0  0  0
    0.6168   -1.5056    1.1603 O   0  0  0  0  0  0  0  0  0  0  0  0
    1.7815    0.5130    0.5347 C   0  0  0  0  0  0  0  0  0  0  0  0
    0.5781    0.9584   -0.2820 C   0  0  0  0  0  0  0  0  0  0  0  0
    0.4269    0.3007   -1.1491 H   0  0  0  0  0  0  0  0  0  0  0  0
    0.6320    2.3936   -0.7826 C   0  0  0  0  0  0  0  0  0  0  0  0
   -0.1406    2.8189   -1.6128 O   0  0  0  0  0  0  0  0  0  0  0  0
    1.5793    3.0935   -0.2098 O   0  0  0  0  0  0  0  0  0  0  0  0
    1.7142    4.4817   -0.5847 C   0  0  0  0  0  0  0  0  0  0  0  0
    3.0638    4.9718   -0.0987 C   0  0  0  0  0  0  0  0  0  0  0  0
   -0.9764    0.8590    0.6884 S   0  0  0  0  0  0  0  0  0  0  0  0
   -1.7217   -1.0018   -0.0439 P   0  0  0  0  0  0  0  0  0  0  0  0
   -0.7924   -1.8577   -1.5379 S   0  0  0  0  0  0  0  0  0  0  0  0
   -2.0447   -1.9593    1.1623 O   0  0  0  0  0  0  0  0  0  0  0  0
   -2.7344   -1.5091    2.3445 C   0  0  0  0  0  0  0  0  0  0  0  0
   -3.2273   -0.5783   -0.4413 O   0  0  0  0  0  0  0  0  0  0  0  0
   -3.4753    0.2712   -1.5614 C   0  0  0  0  0  0  0  0  0  0  0  0
    2.6813   -4.8169   -0.1342 H   0  0  0  0  0  0  0  0  0  0  0  0
    1.6157   -3.5214   -0.6927 H   0  0  0  0  0  0  0  0  0  0  0  0
    3.3429   -3.4592   -1.0603 H   0  0  0  0  0  0  0  0  0  0  0  0
    3.8653   -3.1885    1.3686 H   0  0  0  0  0  0  0  0  0  0  0  0
    2.1091   -3.2634    1.7364 H   0  0  0  0  0  0  0  0  0  0  0  0
    2.7036    0.6794   -0.0212 H   0  0  0  0  0  0  0  0  0  0  0  0
    1.8237    1.0754    1.4697 H   0  0  0  0  0  0  0  0  0  0  0  0
    1.6143    4.5571   -1.6715 H   0  0  0  0  0  0  0  0  0  0  0  0
    0.8922    5.0352   -0.1219 H   0  0  0  0  0  0  0  0  0  0  0  0
    3.1746    6.0203   -0.3538 H   0  0  0  0  0  0  0  0  0  0  0  0
    3.1358    4.8560    0.9782 H   0  0  0  0  0  0  0  0  0  0  0  0
    3.8617    4.4046   -0.5682 H   0  0  0  0  0  0  0  0  0  0  0  0
   -2.7600   -2.3751    3.0006 H   0  0  0  0  0  0  0  0  0  0  0  0
   -3.7409   -1.1842    2.0866 H   0  0  0  0  0  0  0  0  0  0  0  0
   -2.1806   -0.6920    2.8064 H   0  0  0  0  0  0  0  0  0  0  0  0
   -4.5561    0.3598   -1.6305 H   0  0  0  0  0  0  0  0  0  0  0  0
   -3.0687   -0.1776   -2.4693 H   0  0  0  0  0  0  0  0  0  0  0  0
   -3.0193    1.2507   -1.4051 H   0  0  0  0  0  0  0  0  0  0  0  0
  1  2  1  0  0  0  0
  2  3  1  0  0  0  0
  3  4  4  0  0  0  0
  4  5  2  0  0  0  0
  4  6  1  0  0  0  0
  6  7  1  0  0  0  0
  7  8  1  0  0  0  0
  7  9  1  0  0  0  0
  9 10  2  0  0  0  0
  9 11  4  0  0  0  0
 11 12  1  0  0  0  0
 12 13  1  0  0  0  0
  7 14  1  0  0  0  0
 14 15  1  0  0  0  0
 15 16  2  0  0  0  0
 15 17  2  0  0  0  0
 17 18  1  0  0  0  0
 15 19  1  0  0  0  0
 19 20  1  0  0  0  0
  1 21  1  0  0  0  0
  1 22  1  0  0  0  0
  1 23  1  0  0  0  0
  2 24  1  0  0  0  0
  2 25  1  0  0  0  0
  6 26  1  0  0  0  0
  6 27  1  0  0  0  0
 12 28  1  0  0  0  0
 12 29  1  0  0  0  0
 13 30  1  0  0  0  0
 13 31  1  0  0  0  0
 13 32  1  0  0  0  0
 18 33  1  0  0  0  0
 18 34  1  0  0  0  0
 18 35  1  0  0  0  0
 20 36  1  0  0  0  0
 20 37  1  0  0  0  0
 20 38  1  0  0  0  0
M  END
