 xtb: 6.7.1 (edcfbbe)
          04092507313D

 38 37  0     0  0            999 V2000
    1.5524   -3.8542   -1.9660 C   0  0  0  0  0  0  0  0  0  0  0  0
    2.2273   -3.6257   -0.6225 C   0  0  0  0  0  0  0  0  0  0  0  0
    1.8630   -2.3456   -0.0696 O   0  0  0  0  0  0  0  0  0  0  0  0
    2.5084   -1.2776   -0.4957 C   0  0  0  0  0  0  0  0  0  0  0  0
    3.4235   -1.2929   -1.2864 O   0  0  0  0  0  0  0  0  0  0  0  0
    1.9377   -0.0088    0.1103 C   0  0  0  0  0  0  0  0  0  0  0  0
    0.9353    0.5976   -0.8776 C   0  0  0  0  0  0  0  0  0  0  0  0
    1.4344    0.7940   -1.8310 H   0  0  0  0  0  0  0  0  0  0  0  0
    0.3474    1.8915   -0.3487 C   0  0  0  0  0  0  0  0  0  0  0  0
   -0.8482    2.0462   -0.1836 O   0  0  0  0  0  0  0  0  0  0  0  0
    1.2539    2.7871   -0.0979 O   0  0  0  0  0  0  0  0  0  0  0  0
    0.8198    4.0511    0.4568 C   0  0  0  0  0  0  0  0  0  0  0  0
    2.0523    4.8930    0.7146 C   0  0  0  0  0  0  0  0  0  0  0  0
   -0.4440   -0.5265   -1.2744 S   0  0  0  0  0  0  0  0  0  0  0  0
   -1.7145   -0.2668    0.4118 P   0  0  0  0  0  0  0  0  0  0  0  0
   -1.0002    0.2470    2.1751 S   0  0  0  0  0  0  0  0  0  0  0  0
   -3.0695    0.3975   -0.0722 O   0  0  0  0  0  0  0  0  0  0  0  0
   -3.5666    1.6727    0.3380 C   0  0  0  0  0  0  0  0  0  0  0  0
   -2.3298   -1.7468    0.4526 O   0  0  0  0  0  0  0  0  0  0  0  0
   -1.5404   -2.8472    0.9128 C   0  0  0  0  0  0  0  0  0  0  0  0
    1.9151   -3.1319   -2.6933 H   0  0  0  0  0  0  0  0  0  0  0  0
    1.7817   -4.8550   -2.3159 H   0  0  0  0  0  0  0  0  0  0  0  0
    0.4750   -3.7427   -1.8751 H   0  0  0  0  0  0  0  0  0  0  0  0
    3.3152   -3.6592   -0.7287 H   0  0  0  0  0  0  0  0  0  0  0  0
    1.8949   -4.3488    0.1224 H   0  0  0  0  0  0  0  0  0  0  0  0
    2.7436    0.7084    0.2674 H   0  0  0  0  0  0  0  0  0  0  0  0
    1.4464   -0.2419    1.0563 H   0  0  0  0  0  0  0  0  0  0  0  0
    0.1445    4.5247   -0.2615 H   0  0  0  0  0  0  0  0  0  0  0  0
    0.2633    3.8438    1.3757 H   0  0  0  0  0  0  0  0  0  0  0  0
    1.7486    5.8555    1.1122 H   0  0  0  0  0  0  0  0  0  0  0  0
    2.7001    4.3993    1.4324 H   0  0  0  0  0  0  0  0  0  0  0  0
    2.6011    5.0438   -0.2099 H   0  0  0  0  0  0  0  0  0  0  0  0
   -4.6435    1.5556    0.4390 H   0  0  0  0  0  0  0  0  0  0  0  0
   -3.3244    2.4139   -0.4212 H   0  0  0  0  0  0  0  0  0  0  0  0
   -3.1245    1.9665    1.2913 H   0  0  0  0  0  0  0  0  0  0  0  0
   -1.2758   -2.6999    1.9614 H   0  0  0  0  0  0  0  0  0  0  0  0
   -0.6300   -2.9408    0.3194 H   0  0  0  0  0  0  0  0  0  0  0  0
   -2.1684   -3.7263    0.7960 H   0  0  0  0  0  0  0  0  0  0  0  0
  1  2  1  0  0  0  0
  2  3  1  0  0  0  0
  3  4  1  0  0  0  0
  4  5  2  0  0  0  0
  4  6  1  0  0  0  0
  6  7  1  0  0  0  0
  7  8  1  0  0  0  0
  7  9  1  0  0  0  0
  9 10  2  0  0  0  0
  9 11  4  0  0  0  0
 11 12  1  0  0  0  0
 12 13  1  0  0  0  0
  7 14  1  0  0  0  0
 14 15  1  0  0  0  0
 15 16  2  0  0  0  0
 15 17  2  0  0  0  0
 17 18  1  0  0  0  0
 15 19  1  0  0  0  0
 19 20  1  0  0  0  0
  1 21  1  0  0  0  0
  1 22  1  0  0  0  0
  1 23  1  0  0  0  0
  2 24  1  0  0  0  0
  2 25  1  0  0  0  0
  6 26  1  0  0  0  0
  6 27  1  0  0  0  0
 12 28  1  0  0  0  0
 12 29  1  0  0  0  0
 13 30  1  0  0  0  0
 13 31  1  0  0  0  0
 13 32  1  0  0  0  0
 18 33  1  0  0  0  0
 18 34  1  0  0  0  0
 18 35  1  0  0  0  0
 20 36  1  0  0  0  0
 20 37  1  0  0  0  0
 20 38  1  0  0  0  0
M  END
