 xtb: 6.7.1 (edcfbbe)
          04092505203D

 41 40  0     0  0            999 V2000
    2.4337   -1.7375   -2.8406 C   0  0  0  0  0  0  0  0  0  0  0  0
    3.4540   -0.9057   -2.0905 C   0  0  0  0  0  0  0  0  0  0  0  0
    3.2628   -0.9837   -0.6688 O   0  0  0  0  0  0  0  0  0  0  0  0
    1.9649   -0.4075    0.0503 P   0  0  0  0  0  0  0  0  0  0  0  0
    1.4030    1.3205   -0.7204 S   0  0  0  0  0  0  0  0  0  0  0  0
    2.4020   -0.3850    1.5724 O   0  0  0  0  0  0  0  0  0  0  0  0
    2.9452    0.7874    2.2096 C   0  0  0  0  0  0  0  0  0  0  0  0
    4.3388    1.0996    1.7066 C   0  0  0  0  0  0  0  0  0  0  0  0
    0.7379   -2.1206    0.1020 S   0  0  0  0  0  0  0  0  0  0  0  0
   -0.4652   -1.7022    1.4158 C   0  0  0  0  0  0  0  0  0  0  0  0
   -0.7192    0.0702    1.6858 S   0  0  0  0  0  0  0  0  0  0  0  0
   -1.9567    0.5376    0.0408 P   0  0  0  0  0  0  0  0  0  0  0  0
   -2.3075    2.4432   -0.2411 S   0  0  0  0  0  0  0  0  0  0  0  0
   -3.2864   -0.3286    0.2451 O   0  0  0  0  0  0  0  0  0  0  0  0
   -4.4398    0.1949    0.9197 C   0  0  0  0  0  0  0  0  0  0  0  0
   -4.2117    0.3148    2.4130 C   0  0  0  0  0  0  0  0  0  0  0  0
   -1.2438   -0.3217   -1.0821 O   0  0  0  0  0  0  0  0  0  0  0  0
   -1.8142   -0.5613   -2.3885 C   0  0  0  0  0  0  0  0  0  0  0  0
   -1.5120    0.5777   -3.3408 C   0  0  0  0  0  0  0  0  0  0  0  0
    2.6548   -1.7146   -3.9028 H   0  0  0  0  0  0  0  0  0  0  0  0
    2.4480   -2.7649   -2.4855 H   0  0  0  0  0  0  0  0  0  0  0  0
    1.4383   -1.3244   -2.6756 H   0  0  0  0  0  0  0  0  0  0  0  0
    3.3876    0.1455   -2.3908 H   0  0  0  0  0  0  0  0  0  0  0  0
    4.4698   -1.2729   -2.2413 H   0  0  0  0  0  0  0  0  0  0  0  0
    2.2671    1.6283    2.0282 H   0  0  0  0  0  0  0  0  0  0  0  0
    2.9408    0.5340    3.2705 H   0  0  0  0  0  0  0  0  0  0  0  0
    4.9790    0.2280    1.8125 H   0  0  0  0  0  0  0  0  0  0  0  0
    4.2965    1.3801    0.6547 H   0  0  0  0  0  0  0  0  0  0  0  0
    4.7513    1.9266    2.2760 H   0  0  0  0  0  0  0  0  0  0  0  0
   -0.0911   -2.0892    2.3608 H   0  0  0  0  0  0  0  0  0  0  0  0
   -1.4066   -2.1715    1.1374 H   0  0  0  0  0  0  0  0  0  0  0  0
   -4.6772    1.1731    0.4893 H   0  0  0  0  0  0  0  0  0  0  0  0
   -5.2312   -0.5188    0.6865 H   0  0  0  0  0  0  0  0  0  0  0  0
   -5.1283    0.6453    2.8905 H   0  0  0  0  0  0  0  0  0  0  0  0
   -3.9107   -0.6417    2.8321 H   0  0  0  0  0  0  0  0  0  0  0  0
   -3.4285    1.0472    2.6080 H   0  0  0  0  0  0  0  0  0  0  0  0
   -1.3374   -1.4902   -2.7098 H   0  0  0  0  0  0  0  0  0  0  0  0
   -2.8902   -0.7162   -2.2815 H   0  0  0  0  0  0  0  0  0  0  0  0
   -1.8457    0.3122   -4.3386 H   0  0  0  0  0  0  0  0  0  0  0  0
   -2.0205    1.4855   -3.0215 H   0  0  0  0  0  0  0  0  0  0  0  0
   -0.4429    0.7781   -3.3574 H   0  0  0  0  0  0  0  0  0  0  0  0
  1  2  1  0  0  0  0
  2  3  1  0  0  0  0
  3  4  2  0  0  0  0
  4  5  2  0  0  0  0
  4  6  2  0  0  0  0
  6  7  1  0  0  0  0
  7  8  1  0  0  0  0
  4  9  1  0  0  0  0
  9 10  1  0  0  0  0
 10 11  1  0  0  0  0
 11 12  1  0  0  0  0
 12 13  2  0  0  0  0
 12 14  2  0  0  0  0
 14 15  1  0  0  0  0
 15 16  1  0  0  0  0
 12 17  2  0  0  0  0
 17 18  1  0  0  0  0
 18 19  1  0  0  0  0
  1 20  1  0  0  0  0
  1 21  1  0  0  0  0
  1 22  1  0  0  0  0
  2 23  1  0  0  0  0
  2 24  1  0  0  0  0
  7 25  1  0  0  0  0
  7 26  1  0  0  0  0
  8 27  1  0  0  0  0
  8 28  1  0  0  0  0
  8 29  1  0  0  0  0
 10 30  1  0  0  0  0
 10 31  1  0  0  0  0
 15 32  1  0  0  0  0
 15 33  1  0  0  0  0
 16 34  1  0  0  0  0
 16 35  1  0  0  0  0
 16 36  1  0  0  0  0
 18 37  1  0  0  0  0
 18 38  1  0  0  0  0
 19 39  1  0  0  0  0
 19 40  1  0  0  0  0
 19 41  1  0  0  0  0
M  END
