 xtb: 6.7.1 (edcfbbe)
          04092505203D

 41 40  0     0  0            999 V2000
    2.5528    0.6799   -2.6970 C   0  0  0  0  0  0  0  0  0  0  0  0
    1.7213    1.5078   -1.7413 C   0  0  0  0  0  0  0  0  0  0  0  0
    1.2461    0.7249   -0.6303 O   0  0  0  0  0  0  0  0  0  0  0  0
    2.1950    0.2954    0.5647 P   0  0  0  0  0  0  0  0  0  0  0  0
    3.5307    1.6151    1.1156 S   0  0  0  0  0  0  0  0  0  0  0  0
    2.7908   -1.0900    0.0381 O   0  0  0  0  0  0  0  0  0  0  0  0
    3.9716   -1.6707    0.6172 C   0  0  0  0  0  0  0  0  0  0  0  0
    3.7155   -2.2063    2.0116 C   0  0  0  0  0  0  0  0  0  0  0  0
    0.7270   -0.2263    1.9743 S   0  0  0  0  0  0  0  0  0  0  0  0
   -0.1369   -1.5600    1.0507 C   0  0  0  0  0  0  0  0  0  0  0  0
   -1.9194   -1.3106    1.0369 S   0  0  0  0  0  0  0  0  0  0  0  0
   -2.0169   -0.0351   -0.6706 P   0  0  0  0  0  0  0  0  0  0  0  0
   -1.0621   -0.6569   -2.2584 S   0  0  0  0  0  0  0  0  0  0  0  0
   -1.4795    1.3812   -0.2248 O   0  0  0  0  0  0  0  0  0  0  0  0
   -2.0050    2.1165    0.9053 C   0  0  0  0  0  0  0  0  0  0  0  0
   -2.9722    3.1862    0.4424 C   0  0  0  0  0  0  0  0  0  0  0  0
   -3.5779    0.2319   -0.8015 O   0  0  0  0  0  0  0  0  0  0  0  0
   -4.5953   -0.7877   -0.7919 C   0  0  0  0  0  0  0  0  0  0  0  0
   -4.3645   -1.8602   -1.8352 C   0  0  0  0  0  0  0  0  0  0  0  0
    3.4680    0.3501   -2.2084 H   0  0  0  0  0  0  0  0  0  0  0  0
    1.9848   -0.1902   -3.0190 H   0  0  0  0  0  0  0  0  0  0  0  0
    2.8081    1.2830   -3.5624 H   0  0  0  0  0  0  0  0  0  0  0  0
    0.8060    1.8674   -2.2152 H   0  0  0  0  0  0  0  0  0  0  0  0
    2.2960    2.3521   -1.3460 H   0  0  0  0  0  0  0  0  0  0  0  0
    4.2440   -2.4651   -0.0788 H   0  0  0  0  0  0  0  0  0  0  0  0
    4.7557   -0.9070    0.6396 H   0  0  0  0  0  0  0  0  0  0  0  0
    4.6180   -2.6809    2.3831 H   0  0  0  0  0  0  0  0  0  0  0  0
    3.4476   -1.3882    2.6800 H   0  0  0  0  0  0  0  0  0  0  0  0
    2.9075   -2.9330    1.9996 H   0  0  0  0  0  0  0  0  0  0  0  0
    0.0415   -2.4967    1.5713 H   0  0  0  0  0  0  0  0  0  0  0  0
    0.2329   -1.5867    0.0250 H   0  0  0  0  0  0  0  0  0  0  0  0
   -2.4867    1.4179    1.5958 H   0  0  0  0  0  0  0  0  0  0  0  0
   -1.1260    2.5519    1.3868 H   0  0  0  0  0  0  0  0  0  0  0  0
   -3.3130    3.7519    1.3039 H   0  0  0  0  0  0  0  0  0  0  0  0
   -2.4798    3.8575   -0.2558 H   0  0  0  0  0  0  0  0  0  0  0  0
   -3.8265    2.7315   -0.0521 H   0  0  0  0  0  0  0  0  0  0  0  0
   -4.6300   -1.2242    0.2101 H   0  0  0  0  0  0  0  0  0  0  0  0
   -5.5149   -0.2335   -0.9880 H   0  0  0  0  0  0  0  0  0  0  0  0
   -3.4542   -2.4141   -1.6113 H   0  0  0  0  0  0  0  0  0  0  0  0
   -5.2051   -2.5466   -1.8368 H   0  0  0  0  0  0  0  0  0  0  0  0
   -4.2611   -1.4147   -2.8218 H   0  0  0  0  0  0  0  0  0  0  0  0
  1  2  1  0  0  0  0
  2  3  1  0  0  0  0
  3  4  2  0  0  0  0
  4  5  2  0  0  0  0
  4  6  2  0  0  0  0
  6  7  1  0  0  0  0
  7  8  1  0  0  0  0
  4  9  1  0  0  0  0
  9 10  1  0  0  0  0
 10 11  1  0  0  0  0
 11 12  1  0  0  0  0
 12 13  2  0  0  0  0
 12 14  2  0  0  0  0
 14 15  1  0  0  0  0
 15 16  1  0  0  0  0
 12 17  2  0  0  0  0
 17 18  1  0  0  0  0
 18 19  1  0  0  0  0
  1 20  1  0  0  0  0
  1 21  1  0  0  0  0
  1 22  1  0  0  0  0
  2 23  1  0  0  0  0
  2 24  1  0  0  0  0
  7 25  1  0  0  0  0
  7 26  1  0  0  0  0
  8 27  1  0  0  0  0
  8 28  1  0  0  0  0
  8 29  1  0  0  0  0
 10 30  1  0  0  0  0
 10 31  1  0  0  0  0
 15 32  1  0  0  0  0
 15 33  1  0  0  0  0
 16 34  1  0  0  0  0
 16 35  1  0  0  0  0
 16 36  1  0  0  0  0
 18 37  1  0  0  0  0
 18 38  1  0  0  0  0
 19 39  1  0  0  0  0
 19 40  1  0  0  0  0
 19 41  1  0  0  0  0
M  END
