 xtb: 6.7.1 (edcfbbe)
          04092505203D

 41 40  0     0  0            999 V2000
    3.8981   -1.3704   -2.5215 C   0  0  0  0  0  0  0  0  0  0  0  0
    4.2040   -1.5948   -1.0551 C   0  0  0  0  0  0  0  0  0  0  0  0
    3.0069   -1.6469   -0.2591 O   0  0  0  0  0  0  0  0  0  0  0  0
    2.1247   -0.3549    0.0258 P   0  0  0  0  0  0  0  0  0  0  0  0
    3.1567    1.2999    0.2735 S   0  0  0  0  0  0  0  0  0  0  0  0
    1.2003   -0.8628    1.2070 O   0  0  0  0  0  0  0  0  0  0  0  0
    1.6647   -1.4876    2.4216 C   0  0  0  0  0  0  0  0  0  0  0  0
    2.5296   -0.5646    3.2549 C   0  0  0  0  0  0  0  0  0  0  0  0
    0.6891   -0.2917   -1.5245 S   0  0  0  0  0  0  0  0  0  0  0  0
    0.1618    1.4191   -1.2612 C   0  0  0  0  0  0  0  0  0  0  0  0
   -0.6052    1.6857    0.3632 S   0  0  0  0  0  0  0  0  0  0  0  0
   -2.2493    0.4015    0.0729 P   0  0  0  0  0  0  0  0  0  0  0  0
   -3.0099    0.2734   -1.7329 S   0  0  0  0  0  0  0  0  0  0  0  0
   -3.3054    0.8328    1.1841 O   0  0  0  0  0  0  0  0  0  0  0  0
   -4.3269    1.8152    0.9375 C   0  0  0  0  0  0  0  0  0  0  0  0
   -3.7511    3.2074    0.7774 C   0  0  0  0  0  0  0  0  0  0  0  0
   -1.6788   -0.9294    0.7140 O   0  0  0  0  0  0  0  0  0  0  0  0
   -2.3004   -2.2174    0.4987 C   0  0  0  0  0  0  0  0  0  0  0  0
   -1.5320   -3.0058   -0.5434 C   0  0  0  0  0  0  0  0  0  0  0  0
    3.4822   -0.3743   -2.6662 H   0  0  0  0  0  0  0  0  0  0  0  0
    4.8139   -1.4567   -3.0971 H   0  0  0  0  0  0  0  0  0  0  0  0
    3.1773   -2.1035   -2.8745 H   0  0  0  0  0  0  0  0  0  0  0  0
    4.8415   -0.7933   -0.6682 H   0  0  0  0  0  0  0  0  0  0  0  0
    4.6760   -2.5632   -0.8841 H   0  0  0  0  0  0  0  0  0  0  0  0
    0.7389   -1.7418    2.9414 H   0  0  0  0  0  0  0  0  0  0  0  0
    2.2057   -2.3986    2.1550 H   0  0  0  0  0  0  0  0  0  0  0  0
    2.7676   -1.0476    4.1975 H   0  0  0  0  0  0  0  0  0  0  0  0
    3.4552   -0.3355    2.7289 H   0  0  0  0  0  0  0  0  0  0  0  0
    2.0054    0.3684    3.4500 H   0  0  0  0  0  0  0  0  0  0  0  0
   -0.5554    1.6443   -2.0496 H   0  0  0  0  0  0  0  0  0  0  0  0
    1.0251    2.0829   -1.3028 H   0  0  0  0  0  0  0  0  0  0  0  0
   -4.8776    1.5212    0.0382 H   0  0  0  0  0  0  0  0  0  0  0  0
   -4.9753    1.7439    1.8118 H   0  0  0  0  0  0  0  0  0  0  0  0
   -3.1148    3.4533    1.6239 H   0  0  0  0  0  0  0  0  0  0  0  0
   -3.1567    3.2619   -0.1337 H   0  0  0  0  0  0  0  0  0  0  0  0
   -4.5615    3.9264    0.7130 H   0  0  0  0  0  0  0  0  0  0  0  0
   -2.2734   -2.7073    1.4734 H   0  0  0  0  0  0  0  0  0  0  0  0
   -3.3395   -2.0707    0.1904 H   0  0  0  0  0  0  0  0  0  0  0  0
   -1.5973   -2.5128   -1.5113 H   0  0  0  0  0  0  0  0  0  0  0  0
   -0.4844   -3.0744   -0.2610 H   0  0  0  0  0  0  0  0  0  0  0  0
   -1.9526   -4.0032   -0.6214 H   0  0  0  0  0  0  0  0  0  0  0  0
  1  2  1  0  0  0  0
  2  3  1  0  0  0  0
  3  4  2  0  0  0  0
  4  5  2  0  0  0  0
  4  6  2  0  0  0  0
  6  7  1  0  0  0  0
  7  8  1  0  0  0  0
  4  9  1  0  0  0  0
  9 10  1  0  0  0  0
 10 11  1  0  0  0  0
 11 12  1  0  0  0  0
 12 13  2  0  0  0  0
 12 14  2  0  0  0  0
 14 15  1  0  0  0  0
 15 16  1  0  0  0  0
 12 17  2  0  0  0  0
 17 18  1  0  0  0  0
 18 19  1  0  0  0  0
  1 20  1  0  0  0  0
  1 21  1  0  0  0  0
  1 22  1  0  0  0  0
  2 23  1  0  0  0  0
  2 24  1  0  0  0  0
  7 25  1  0  0  0  0
  7 26  1  0  0  0  0
  8 27  1  0  0  0  0
  8 28  1  0  0  0  0
  8 29  1  0  0  0  0
 10 30  1  0  0  0  0
 10 31  1  0  0  0  0
 15 32  1  0  0  0  0
 15 33  1  0  0  0  0
 16 34  1  0  0  0  0
 16 35  1  0  0  0  0
 16 36  1  0  0  0  0
 18 37  1  0  0  0  0
 18 38  1  0  0  0  0
 19 39  1  0  0  0  0
 19 40  1  0  0  0  0
 19 41  1  0  0  0  0
M  END
