 xtb: 6.7.1 (edcfbbe)
          04092505203D

 41 40  0     0  0            999 V2000
    4.4807    0.9613   -1.1685 C   0  0  0  0  0  0  0  0  0  0  0  0
    4.4205    0.8164    0.3385 C   0  0  0  0  0  0  0  0  0  0  0  0
    3.4876   -0.1914    0.7621 O   0  0  0  0  0  0  0  0  0  0  0  0
    1.9129   -0.0611    0.5461 P   0  0  0  0  0  0  0  0  0  0  0  0
    1.2071    1.7408    0.8289 S   0  0  0  0  0  0  0  0  0  0  0  0
    1.3776   -1.1298    1.5782 O   0  0  0  0  0  0  0  0  0  0  0  0
    1.8074   -2.5118    1.5633 C   0  0  0  0  0  0  0  0  0  0  0  0
    2.8610   -2.7573    2.6236 C   0  0  0  0  0  0  0  0  0  0  0  0
    1.6194   -0.9275   -1.3831 S   0  0  0  0  0  0  0  0  0  0  0  0
    0.3084    0.1336   -2.0326 C   0  0  0  0  0  0  0  0  0  0  0  0
   -1.3253   -0.6829   -2.0937 S   0  0  0  0  0  0  0  0  0  0  0  0
   -2.2339    0.1194   -0.3861 P   0  0  0  0  0  0  0  0  0  0  0  0
   -4.1246   -0.3079   -0.1131 S   0  0  0  0  0  0  0  0  0  0  0  0
   -1.9243    1.6861   -0.3881 O   0  0  0  0  0  0  0  0  0  0  0  0
   -2.8417    2.6387   -0.9504 C   0  0  0  0  0  0  0  0  0  0  0  0
   -2.8636    2.5734   -2.4643 C   0  0  0  0  0  0  0  0  0  0  0  0
   -1.2180   -0.3938    0.7286 O   0  0  0  0  0  0  0  0  0  0  0  0
   -1.5421   -0.1769    2.1221 C   0  0  0  0  0  0  0  0  0  0  0  0
   -2.0837   -1.4465    2.7438 C   0  0  0  0  0  0  0  0  0  0  0  0
    5.2980    1.6262   -1.4289 H   0  0  0  0  0  0  0  0  0  0  0  0
    4.6388   -0.0066   -1.6372 H   0  0  0  0  0  0  0  0  0  0  0  0
    3.5500    1.3867   -1.5399 H   0  0  0  0  0  0  0  0  0  0  0  0
    4.1359    1.7648    0.8044 H   0  0  0  0  0  0  0  0  0  0  0  0
    5.3733    0.4756    0.7462 H   0  0  0  0  0  0  0  0  0  0  0  0
    0.9011   -3.0880    1.7617 H   0  0  0  0  0  0  0  0  0  0  0  0
    2.1832   -2.7595    0.5664 H   0  0  0  0  0  0  0  0  0  0  0  0
    2.4825   -2.4673    3.6000 H   0  0  0  0  0  0  0  0  0  0  0  0
    3.1114   -3.8134    2.6351 H   0  0  0  0  0  0  0  0  0  0  0  0
    3.7545   -2.1785    2.4066 H   0  0  0  0  0  0  0  0  0  0  0  0
    0.5643    0.3613   -3.0635 H   0  0  0  0  0  0  0  0  0  0  0  0
    0.2429    1.0356   -1.4194 H   0  0  0  0  0  0  0  0  0  0  0  0
   -3.8383    2.4399   -0.5427 H   0  0  0  0  0  0  0  0  0  0  0  0
   -2.4752    3.6006   -0.5890 H   0  0  0  0  0  0  0  0  0  0  0  0
   -3.2334    1.6004   -2.7875 H   0  0  0  0  0  0  0  0  0  0  0  0
   -3.5251    3.3449   -2.8449 H   0  0  0  0  0  0  0  0  0  0  0  0
   -1.8653    2.7254   -2.8666 H   0  0  0  0  0  0  0  0  0  0  0  0
   -0.6048    0.1337    2.5878 H   0  0  0  0  0  0  0  0  0  0  0  0
   -2.2665    0.6393    2.1954 H   0  0  0  0  0  0  0  0  0  0  0  0
   -2.2734   -1.2724    3.7981 H   0  0  0  0  0  0  0  0  0  0  0  0
   -3.0129   -1.7344    2.2561 H   0  0  0  0  0  0  0  0  0  0  0  0
   -1.3630   -2.2519    2.6350 H   0  0  0  0  0  0  0  0  0  0  0  0
  1  2  1  0  0  0  0
  2  3  1  0  0  0  0
  3  4  2  0  0  0  0
  4  5  2  0  0  0  0
  4  6  2  0  0  0  0
  6  7  1  0  0  0  0
  7  8  1  0  0  0  0
  4  9  1  0  0  0  0
  9 10  1  0  0  0  0
 10 11  1  0  0  0  0
 11 12  1  0  0  0  0
 12 13  2  0  0  0  0
 12 14  2  0  0  0  0
 14 15  1  0  0  0  0
 15 16  1  0  0  0  0
 12 17  1  0  0  0  0
 17 18  1  0  0  0  0
 18 19  1  0  0  0  0
  1 20  1  0  0  0  0
  1 21  1  0  0  0  0
  1 22  1  0  0  0  0
  2 23  1  0  0  0  0
  2 24  1  0  0  0  0
  7 25  1  0  0  0  0
  7 26  1  0  0  0  0
  8 27  1  0  0  0  0
  8 28  1  0  0  0  0
  8 29  1  0  0  0  0
 10 30  1  0  0  0  0
 10 31  1  0  0  0  0
 15 32  1  0  0  0  0
 15 33  1  0  0  0  0
 16 34  1  0  0  0  0
 16 35  1  0  0  0  0
 16 36  1  0  0  0  0
 18 37  1  0  0  0  0
 18 38  1  0  0  0  0
 19 39  1  0  0  0  0
 19 40  1  0  0  0  0
 19 41  1  0  0  0  0
M  END
