 xtb: 6.7.1 (edcfbbe)
          04092505213D

 41 40  0     0  0            999 V2000
    2.3796   -0.1913   -3.0695 C   0  0  0  0  0  0  0  0  0  0  0  0
    3.2255    0.4370   -1.9804 C   0  0  0  0  0  0  0  0  0  0  0  0
    2.4134    0.9049   -0.8764 O   0  0  0  0  0  0  0  0  0  0  0  0
    2.0135    0.0278    0.3806 P   0  0  0  0  0  0  0  0  0  0  0  0
    1.1182    1.1316    1.7241 S   0  0  0  0  0  0  0  0  0  0  0  0
    3.3825   -0.6447    0.8821 O   0  0  0  0  0  0  0  0  0  0  0  0
    4.3736    0.1259    1.5937 C   0  0  0  0  0  0  0  0  0  0  0  0
    4.2867   -0.1482    3.0822 C   0  0  0  0  0  0  0  0  0  0  0  0
    1.0966   -1.7635   -0.2393 S   0  0  0  0  0  0  0  0  0  0  0  0
   -0.1806   -1.9020    1.0529 C   0  0  0  0  0  0  0  0  0  0  0  0
   -1.8695   -1.8964    0.3925 S   0  0  0  0  0  0  0  0  0  0  0  0
   -2.0872    0.1110   -0.2049 P   0  0  0  0  0  0  0  0  0  0  0  0
   -0.7769    0.9652   -1.3994 S   0  0  0  0  0  0  0  0  0  0  0  0
   -2.2759    0.7713    1.2217 O   0  0  0  0  0  0  0  0  0  0  0  0
   -2.2216    2.1932    1.4438 C   0  0  0  0  0  0  0  0  0  0  0  0
   -3.3866    2.9130    0.7992 C   0  0  0  0  0  0  0  0  0  0  0  0
   -3.5648    0.1218   -0.7881 O   0  0  0  0  0  0  0  0  0  0  0  0
   -3.8474   -0.1057   -2.1798 C   0  0  0  0  0  0  0  0  0  0  0  0
   -3.5174   -1.5223   -2.6030 C   0  0  0  0  0  0  0  0  0  0  0  0
    1.5468    0.4647   -3.3120 H   0  0  0  0  0  0  0  0  0  0  0  0
    2.9921   -0.3395   -3.9531 H   0  0  0  0  0  0  0  0  0  0  0  0
    1.9814   -1.1503   -2.7460 H   0  0  0  0  0  0  0  0  0  0  0  0
    3.7157    1.3447   -2.3371 H   0  0  0  0  0  0  0  0  0  0  0  0
    3.9701   -0.2677   -1.6003 H   0  0  0  0  0  0  0  0  0  0  0  0
    5.3327   -0.1999    1.1862 H   0  0  0  0  0  0  0  0  0  0  0  0
    4.2273    1.1903    1.3818 H   0  0  0  0  0  0  0  0  0  0  0  0
    3.3313    0.1975    3.4711 H   0  0  0  0  0  0  0  0  0  0  0  0
    4.3775   -1.2146    3.2675 H   0  0  0  0  0  0  0  0  0  0  0  0
    5.0881    0.3777    3.5911 H   0  0  0  0  0  0  0  0  0  0  0  0
   -0.0590   -1.0774    1.7599 H   0  0  0  0  0  0  0  0  0  0  0  0
   -0.0612   -2.8663    1.5393 H   0  0  0  0  0  0  0  0  0  0  0  0
   -2.2324    2.2850    2.5308 H   0  0  0  0  0  0  0  0  0  0  0  0
   -1.2667    2.5692    1.0617 H   0  0  0  0  0  0  0  0  0  0  0  0
   -3.3088    2.8492   -0.2854 H   0  0  0  0  0  0  0  0  0  0  0  0
   -4.3242    2.4616    1.1130 H   0  0  0  0  0  0  0  0  0  0  0  0
   -3.3684    3.9576    1.0940 H   0  0  0  0  0  0  0  0  0  0  0  0
   -4.9138    0.1056   -2.2675 H   0  0  0  0  0  0  0  0  0  0  0  0
   -3.2724    0.6148   -2.7706 H   0  0  0  0  0  0  0  0  0  0  0  0
   -3.8500   -1.6799   -3.6239 H   0  0  0  0  0  0  0  0  0  0  0  0
   -2.4408   -1.6825   -2.5529 H   0  0  0  0  0  0  0  0  0  0  0  0
   -4.0072   -2.2367   -1.9461 H   0  0  0  0  0  0  0  0  0  0  0  0
  1  2  1  0  0  0  0
  2  3  1  0  0  0  0
  3  4  2  0  0  0  0
  4  5  2  0  0  0  0
  4  6  1  0  0  0  0
  6  7  1  0  0  0  0
  7  8  1  0  0  0  0
  4  9  1  0  0  0  0
  9 10  1  0  0  0  0
 10 11  1  0  0  0  0
 11 12  1  0  0  0  0
 12 13  2  0  0  0  0
 12 14  2  0  0  0  0
 14 15  1  0  0  0  0
 15 16  1  0  0  0  0
 12 17  2  0  0  0  0
 17 18  1  0  0  0  0
 18 19  1  0  0  0  0
  1 20  1  0  0  0  0
  1 21  1  0  0  0  0
  1 22  1  0  0  0  0
  2 23  1  0  0  0  0
  2 24  1  0  0  0  0
  7 25  1  0  0  0  0
  7 26  1  0  0  0  0
  8 27  1  0  0  0  0
  8 28  1  0  0  0  0
  8 29  1  0  0  0  0
 10 30  1  0  0  0  0
 10 31  1  0  0  0  0
 15 32  1  0  0  0  0
 15 33  1  0  0  0  0
 16 34  1  0  0  0  0
 16 35  1  0  0  0  0
 16 36  1  0  0  0  0
 18 37  1  0  0  0  0
 18 38  1  0  0  0  0
 19 39  1  0  0  0  0
 19 40  1  0  0  0  0
 19 41  1  0  0  0  0
M  END
