 xtb: 6.7.1 (edcfbbe)
          04092505213D

 41 40  0     0  0            999 V2000
    4.1683   -2.4623   -0.1748 C   0  0  0  0  0  0  0  0  0  0  0  0
    4.7960   -1.0860   -0.0901 C   0  0  0  0  0  0  0  0  0  0  0  0
    3.8656   -0.0873    0.3644 O   0  0  0  0  0  0  0  0  0  0  0  0
    2.6120    0.3681   -0.4969 P   0  0  0  0  0  0  0  0  0  0  0  0
    2.9361    0.5241   -2.4217 S   0  0  0  0  0  0  0  0  0  0  0  0
    2.2528    1.7752    0.1184 O   0  0  0  0  0  0  0  0  0  0  0  0
    1.6551    2.0664    1.4022 C   0  0  0  0  0  0  0  0  0  0  0  0
    2.3003    1.3190    2.5489 C   0  0  0  0  0  0  0  0  0  0  0  0
    1.0588   -0.9810    0.0609 S   0  0  0  0  0  0  0  0  0  0  0  0
   -0.0503   -0.5875   -1.3040 C   0  0  0  0  0  0  0  0  0  0  0  0
   -0.9099    1.0076   -1.0729 S   0  0  0  0  0  0  0  0  0  0  0  0
   -2.5996    0.2630   -0.0359 P   0  0  0  0  0  0  0  0  0  0  0  0
   -3.7888    1.6032    0.7526 S   0  0  0  0  0  0  0  0  0  0  0  0
   -2.0247   -0.8175    0.9799 O   0  0  0  0  0  0  0  0  0  0  0  0
   -1.6078   -0.4823    2.3184 C   0  0  0  0  0  0  0  0  0  0  0  0
   -1.2314   -1.7753    3.0112 C   0  0  0  0  0  0  0  0  0  0  0  0
   -3.2042   -0.6610   -1.1731 O   0  0  0  0  0  0  0  0  0  0  0  0
   -4.5854   -1.0810   -1.1494 C   0  0  0  0  0  0  0  0  0  0  0  0
   -4.8640   -2.0350   -0.0074 C   0  0  0  0  0  0  0  0  0  0  0  0
    3.4302   -2.4867   -0.9748 H   0  0  0  0  0  0  0  0  0  0  0  0
    4.9406   -3.1940   -0.3894 H   0  0  0  0  0  0  0  0  0  0  0  0
    3.6813   -2.7156    0.7632 H   0  0  0  0  0  0  0  0  0  0  0  0
    5.1834   -0.7790   -1.0666 H   0  0  0  0  0  0  0  0  0  0  0  0
    5.5944   -1.0523    0.6525 H   0  0  0  0  0  0  0  0  0  0  0  0
    1.7861    3.1455    1.4992 H   0  0  0  0  0  0  0  0  0  0  0  0
    0.5852    1.8454    1.3283 H   0  0  0  0  0  0  0  0  0  0  0  0
    3.3668    1.5258    2.5756 H   0  0  0  0  0  0  0  0  0  0  0  0
    1.8477    1.6448    3.4807 H   0  0  0  0  0  0  0  0  0  0  0  0
    2.1533    0.2464    2.4365 H   0  0  0  0  0  0  0  0  0  0  0  0
   -0.7837   -1.3843   -1.3822 H   0  0  0  0  0  0  0  0  0  0  0  0
    0.5364   -0.4889   -2.2188 H   0  0  0  0  0  0  0  0  0  0  0  0
   -0.7521    0.1957    2.2639 H   0  0  0  0  0  0  0  0  0  0  0  0
   -2.4340    0.0323    2.8185 H   0  0  0  0  0  0  0  0  0  0  0  0
   -0.9046   -1.5551    4.0218 H   0  0  0  0  0  0  0  0  0  0  0  0
   -2.0861   -2.4439    3.0475 H   0  0  0  0  0  0  0  0  0  0  0  0
   -0.4253   -2.2583    2.4656 H   0  0  0  0  0  0  0  0  0  0  0  0
   -5.2156   -0.1896   -1.0712 H   0  0  0  0  0  0  0  0  0  0  0  0
   -4.7296   -1.5537   -2.1218 H   0  0  0  0  0  0  0  0  0  0  0  0
   -4.7474   -1.5153    0.9426 H   0  0  0  0  0  0  0  0  0  0  0  0
   -5.8831   -2.4006   -0.0861 H   0  0  0  0  0  0  0  0  0  0  0  0
   -4.1742   -2.8741   -0.0393 H   0  0  0  0  0  0  0  0  0  0  0  0
  1  2  1  0  0  0  0
  2  3  1  0  0  0  0
  3  4  2  0  0  0  0
  4  5  2  0  0  0  0
  4  6  2  0  0  0  0
  6  7  1  0  0  0  0
  7  8  1  0  0  0  0
  4  9  1  0  0  0  0
  9 10  1  0  0  0  0
 10 11  1  0  0  0  0
 11 12  1  0  0  0  0
 12 13  2  0  0  0  0
 12 14  2  0  0  0  0
 14 15  1  0  0  0  0
 15 16  1  0  0  0  0
 12 17  2  0  0  0  0
 17 18  1  0  0  0  0
 18 19  1  0  0  0  0
  1 20  1  0  0  0  0
  1 21  1  0  0  0  0
  1 22  1  0  0  0  0
  2 23  1  0  0  0  0
  2 24  1  0  0  0  0
  7 25  1  0  0  0  0
  7 26  1  0  0  0  0
  8 27  1  0  0  0  0
  8 28  1  0  0  0  0
  8 29  1  0  0  0  0
 10 30  1  0  0  0  0
 10 31  1  0  0  0  0
 15 32  1  0  0  0  0
 15 33  1  0  0  0  0
 16 34  1  0  0  0  0
 16 35  1  0  0  0  0
 16 36  1  0  0  0  0
 18 37  1  0  0  0  0
 18 38  1  0  0  0  0
 19 39  1  0  0  0  0
 19 40  1  0  0  0  0
 19 41  1  0  0  0  0
M  END
