 xtb: 6.7.1 (edcfbbe)
          04092505213D

 41 40  0     0  0            999 V2000
    5.9752   -1.0237    0.4412 C   0  0  0  0  0  0  0  0  0  0  0  0
    4.6184   -1.3191   -0.1646 C   0  0  0  0  0  0  0  0  0  0  0  0
    3.7624   -0.1851    0.0943 O   0  0  0  0  0  0  0  0  0  0  0  0
    2.4003    0.0168   -0.6998 P   0  0  0  0  0  0  0  0  0  0  0  0
    2.5335   -0.0303   -2.6489 S   0  0  0  0  0  0  0  0  0  0  0  0
    1.9166    1.4126   -0.1528 O   0  0  0  0  0  0  0  0  0  0  0  0
    1.8145    1.7132    1.2627 C   0  0  0  0  0  0  0  0  0  0  0  0
    0.8239    2.8466    1.4277 C   0  0  0  0  0  0  0  0  0  0  0  0
    1.1519   -1.4696    0.1735 S   0  0  0  0  0  0  0  0  0  0  0  0
   -0.1291   -1.4533   -1.1061 C   0  0  0  0  0  0  0  0  0  0  0  0
   -0.8556    0.1901   -1.3887 S   0  0  0  0  0  0  0  0  0  0  0  0
   -2.2100    0.2376    0.2415 P   0  0  0  0  0  0  0  0  0  0  0  0
   -3.1942    1.9187    0.4370 S   0  0  0  0  0  0  0  0  0  0  0  0
   -1.2653   -0.1705    1.4402 O   0  0  0  0  0  0  0  0  0  0  0  0
   -1.6130    0.1211    2.8121 C   0  0  0  0  0  0  0  0  0  0  0  0
   -2.8122   -0.6825    3.2660 C   0  0  0  0  0  0  0  0  0  0  0  0
   -3.0739   -1.0933    0.0559 O   0  0  0  0  0  0  0  0  0  0  0  0
   -4.1533   -1.1610   -0.8950 C   0  0  0  0  0  0  0  0  0  0  0  0
   -5.4803   -0.8683   -0.2217 C   0  0  0  0  0  0  0  0  0  0  0  0
    6.6340   -1.8675    0.2653 H   0  0  0  0  0  0  0  0  0  0  0  0
    6.4018   -0.1348   -0.0150 H   0  0  0  0  0  0  0  0  0  0  0  0
    5.8774   -0.8593    1.5103 H   0  0  0  0  0  0  0  0  0  0  0  0
    4.1595   -2.2011    0.2897 H   0  0  0  0  0  0  0  0  0  0  0  0
    4.6830   -1.4644   -1.2477 H   0  0  0  0  0  0  0  0  0  0  0  0
    1.4864    0.8109    1.7883 H   0  0  0  0  0  0  0  0  0  0  0  0
    2.8090    1.9950    1.6125 H   0  0  0  0  0  0  0  0  0  0  0  0
    1.1504    3.7128    0.8594 H   0  0  0  0  0  0  0  0  0  0  0  0
   -0.1592    2.5526    1.0632 H   0  0  0  0  0  0  0  0  0  0  0  0
    0.7507    3.1100    2.4780 H   0  0  0  0  0  0  0  0  0  0  0  0
   -0.8993   -2.1520   -0.7897 H   0  0  0  0  0  0  0  0  0  0  0  0
    0.3154   -1.7428   -2.0576 H   0  0  0  0  0  0  0  0  0  0  0  0
   -0.7131   -0.1421    3.3693 H   0  0  0  0  0  0  0  0  0  0  0  0
   -1.8111    1.1938    2.8989 H   0  0  0  0  0  0  0  0  0  0  0  0
   -3.6944   -0.3714    2.7083 H   0  0  0  0  0  0  0  0  0  0  0  0
   -2.6416   -1.7421    3.0953 H   0  0  0  0  0  0  0  0  0  0  0  0
   -2.9833   -0.5081    4.3236 H   0  0  0  0  0  0  0  0  0  0  0  0
   -3.9637   -0.4542   -1.7093 H   0  0  0  0  0  0  0  0  0  0  0  0
   -4.1237   -2.1808   -1.2838 H   0  0  0  0  0  0  0  0  0  0  0  0
   -5.6385   -1.5546    0.6054 H   0  0  0  0  0  0  0  0  0  0  0  0
   -5.4927    0.1517    0.1564 H   0  0  0  0  0  0  0  0  0  0  0  0
   -6.2814   -0.9857   -0.9443 H   0  0  0  0  0  0  0  0  0  0  0  0
  1  2  1  0  0  0  0
  2  3  1  0  0  0  0
  3  4  2  0  0  0  0
  4  5  2  0  0  0  0
  4  6  2  0  0  0  0
  6  7  1  0  0  0  0
  7  8  1  0  0  0  0
  4  9  1  0  0  0  0
  9 10  1  0  0  0  0
 10 11  1  0  0  0  0
 11 12  1  0  0  0  0
 12 13  2  0  0  0  0
 12 14  2  0  0  0  0
 14 15  1  0  0  0  0
 15 16  1  0  0  0  0
 12 17  1  0  0  0  0
 17 18  1  0  0  0  0
 18 19  1  0  0  0  0
  1 20  1  0  0  0  0
  1 21  1  0  0  0  0
  1 22  1  0  0  0  0
  2 23  1  0  0  0  0
  2 24  1  0  0  0  0
  7 25  1  0  0  0  0
  7 26  1  0  0  0  0
  8 27  1  0  0  0  0
  8 28  1  0  0  0  0
  8 29  1  0  0  0  0
 10 30  1  0  0  0  0
 10 31  1  0  0  0  0
 15 32  1  0  0  0  0
 15 33  1  0  0  0  0
 16 34  1  0  0  0  0
 16 35  1  0  0  0  0
 16 36  1  0  0  0  0
 18 37  1  0  0  0  0
 18 38  1  0  0  0  0
 19 39  1  0  0  0  0
 19 40  1  0  0  0  0
 19 41  1  0  0  0  0
M  END
