 xtb: 6.7.1 (edcfbbe)
          04092507313D

 38 37  0     0  0            999 V2000
    4.9340   -3.3960   -1.4981 C   0  0  0  0  0  0  0  0  0  0  0  0
    3.8194   -2.8572   -0.6231 C   0  0  0  0  0  0  0  0  0  0  0  0
    3.0796   -1.8862   -1.3915 O   0  0  0  0  0  0  0  0  0  0  0  0
    2.2784   -1.0656   -0.7588 C   0  0  0  0  0  0  0  0  0  0  0  0
    2.1033   -1.0645    0.4454 O   0  0  0  0  0  0  0  0  0  0  0  0
    1.5977   -0.0890   -1.6940 C   0  0  0  0  0  0  0  0  0  0  0  0
    0.3590    0.4737   -1.0132 C   0  0  0  0  0  0  0  0  0  0  0  0
   -0.0489    1.3241   -1.5674 H   0  0  0  0  0  0  0  0  0  0  0  0
    0.6591    0.9323    0.4018 C   0  0  0  0  0  0  0  0  0  0  0  0
   -0.0646    0.6612    1.3423 O   0  0  0  0  0  0  0  0  0  0  0  0
    1.6942    1.7244    0.4592 O   0  0  0  0  0  0  0  0  0  0  0  0
    2.0470    2.2635    1.7506 C   0  0  0  0  0  0  0  0  0  0  0  0
    3.1363    3.2964    1.5443 C   0  0  0  0  0  0  0  0  0  0  0  0
   -0.9456   -0.7989   -0.9034 S   0  0  0  0  0  0  0  0  0  0  0  0
   -2.3596    0.2625    0.2698 P   0  0  0  0  0  0  0  0  0  0  0  0
   -2.3823    2.2134    0.1113 S   0  0  0  0  0  0  0  0  0  0  0  0
   -3.7110   -0.3903   -0.3230 O   0  0  0  0  0  0  0  0  0  0  0  0
   -4.1589   -0.1076   -1.6508 C   0  0  0  0  0  0  0  0  0  0  0  0
   -2.4903   -0.3005    1.7419 O   0  0  0  0  0  0  0  0  0  0  0  0
   -2.2627   -1.6829    2.0666 C   0  0  0  0  0  0  0  0  0  0  0  0
    5.6055   -2.5933   -1.7874 H   0  0  0  0  0  0  0  0  0  0  0  0
    5.4906   -4.1468   -0.9473 H   0  0  0  0  0  0  0  0  0  0  0  0
    4.5165   -3.8444   -2.3942 H   0  0  0  0  0  0  0  0  0  0  0  0
    4.2019   -2.3692    0.2786 H   0  0  0  0  0  0  0  0  0  0  0  0
    3.1255   -3.6474   -0.3215 H   0  0  0  0  0  0  0  0  0  0  0  0
    1.3432   -0.5892   -2.6274 H   0  0  0  0  0  0  0  0  0  0  0  0
    2.2962    0.7236   -1.9048 H   0  0  0  0  0  0  0  0  0  0  0  0
    1.1464    2.6969    2.1973 H   0  0  0  0  0  0  0  0  0  0  0  0
    2.3802    1.4309    2.3782 H   0  0  0  0  0  0  0  0  0  0  0  0
    4.0081    2.8340    1.0920 H   0  0  0  0  0  0  0  0  0  0  0  0
    2.7779    4.0892    0.8948 H   0  0  0  0  0  0  0  0  0  0  0  0
    3.4118    3.7182    2.5051 H   0  0  0  0  0  0  0  0  0  0  0  0
   -4.1337    0.9687   -1.8309 H   0  0  0  0  0  0  0  0  0  0  0  0
   -5.1797   -0.4772   -1.7008 H   0  0  0  0  0  0  0  0  0  0  0  0
   -3.5252   -0.6221   -2.3732 H   0  0  0  0  0  0  0  0  0  0  0  0
   -1.1950   -1.8968    2.0022 H   0  0  0  0  0  0  0  0  0  0  0  0
   -2.8231   -2.3283    1.3914 H   0  0  0  0  0  0  0  0  0  0  0  0
   -2.6116   -1.7943    3.0899 H   0  0  0  0  0  0  0  0  0  0  0  0
  1  2  1  0  0  0  0
  2  3  1  0  0  0  0
  3  4  4  0  0  0  0
  4  5  2  0  0  0  0
  4  6  1  0  0  0  0
  6  7  1  0  0  0  0
  7  8  1  0  0  0  0
  7  9  1  0  0  0  0
  9 10  2  0  0  0  0
  9 11  4  0  0  0  0
 11 12  1  0  0  0  0
 12 13  1  0  0  0  0
  7 14  1  0  0  0  0
 14 15  1  0  0  0  0
 15 16  2  0  0  0  0
 15 17  1  0  0  0  0
 17 18  1  0  0  0  0
 15 19  2  0  0  0  0
 19 20  1  0  0  0  0
  1 21  1  0  0  0  0
  1 22  1  0  0  0  0
  1 23  1  0  0  0  0
  2 24  1  0  0  0  0
  2 25  1  0  0  0  0
  6 26  1  0  0  0  0
  6 27  1  0  0  0  0
 12 28  1  0  0  0  0
 12 29  1  0  0  0  0
 13 30  1  0  0  0  0
 13 31  1  0  0  0  0
 13 32  1  0  0  0  0
 18 33  1  0  0  0  0
 18 34  1  0  0  0  0
 18 35  1  0  0  0  0
 20 36  1  0  0  0  0
 20 37  1  0  0  0  0
 20 38  1  0  0  0  0
M  END
