 xtb: 6.7.1 (edcfbbe)
          04032519593D

  8  7  0     0  0            999 V2000
   -0.7842    0.0001    0.6771 C   0  0  0  0  0  0  0  0  0  0  0  0
    0.5921    0.0002    0.0263 C   0  0  0  0  0  0  0  0  0  0  0  0
    0.4606   -0.0001   -1.7417 Cl  0  0  0  0  0  0  0  0  0  0  0  0
    1.4871   -1.4422    0.5449 Cl  0  0  0  0  0  0  0  0  0  0  0  0
    1.4874    1.4424    0.5449 Cl  0  0  0  0  0  0  0  0  0  0  0  0
   -1.6754    1.4512    0.1816 Cl  0  0  0  0  0  0  0  0  0  0  0  0
   -1.6747   -1.4514    0.1817 Cl  0  0  0  0  0  0  0  0  0  0  0  0
   -0.7018    0.0001    1.7669 H   0  0  0  0  0  0  0  0  0  0  0  0
  1  2  1  0  0  0  0
  2  3  1  0  0  0  0
  2  4  1  0  0  0  0
  2  5  1  0  0  0  0
  1  6  1  0  0  0  0
  1  7  1  0  0  0  0
  1  8  1  0  0  0  0
M  END
