 xtb: 6.7.1 (edcfbbe)
          04092505213D

 41 40  0     0  0            999 V2000
    5.1344   -1.2055   -1.8124 C   0  0  0  0  0  0  0  0  0  0  0  0
    4.8777   -0.2760   -0.6428 C   0  0  0  0  0  0  0  0  0  0  0  0
    3.6168   -0.5996   -0.0130 O   0  0  0  0  0  0  0  0  0  0  0  0
    2.3005    0.2317   -0.3024 P   0  0  0  0  0  0  0  0  0  0  0  0
    1.9107    0.5920   -2.1952 S   0  0  0  0  0  0  0  0  0  0  0  0
    2.5901    1.5312    0.5717 O   0  0  0  0  0  0  0  0  0  0  0  0
    1.7697    2.7114    0.5758 C   0  0  0  0  0  0  0  0  0  0  0  0
    0.8718    2.7323    1.7968 C   0  0  0  0  0  0  0  0  0  0  0  0
    0.9657   -0.9570    0.7950 S   0  0  0  0  0  0  0  0  0  0  0  0
    0.0176   -1.6834   -0.5942 C   0  0  0  0  0  0  0  0  0  0  0  0
   -1.7021   -1.9627   -0.1504 S   0  0  0  0  0  0  0  0  0  0  0  0
   -2.2406    0.0652    0.2468 P   0  0  0  0  0  0  0  0  0  0  0  0
   -1.3700    1.4318   -0.8525 S   0  0  0  0  0  0  0  0  0  0  0  0
   -1.9568    0.3663    1.7669 O   0  0  0  0  0  0  0  0  0  0  0  0
   -2.4783   -0.4233    2.8673 C   0  0  0  0  0  0  0  0  0  0  0  0
   -1.3884   -1.2924    3.4621 C   0  0  0  0  0  0  0  0  0  0  0  0
   -3.8288    0.0024    0.2387 O   0  0  0  0  0  0  0  0  0  0  0  0
   -4.6387   -0.6025   -0.7870 C   0  0  0  0  0  0  0  0  0  0  0  0
   -4.3381   -0.0576   -2.1674 C   0  0  0  0  0  0  0  0  0  0  0  0
    5.0978   -2.2391   -1.4803 H   0  0  0  0  0  0  0  0  0  0  0  0
    4.3795   -1.0552   -2.5814 H   0  0  0  0  0  0  0  0  0  0  0  0
    6.1135   -0.9944   -2.2301 H   0  0  0  0  0  0  0  0  0  0  0  0
    4.8634    0.7686   -0.9651 H   0  0  0  0  0  0  0  0  0  0  0  0
    5.6223   -0.4061    0.1441 H   0  0  0  0  0  0  0  0  0  0  0  0
    2.4762    3.5437    0.5912 H   0  0  0  0  0  0  0  0  0  0  0  0
    1.1826    2.7498   -0.3482 H   0  0  0  0  0  0  0  0  0  0  0  0
    0.3540    3.6851    1.8387 H   0  0  0  0  0  0  0  0  0  0  0  0
    0.1304    1.9373    1.7393 H   0  0  0  0  0  0  0  0  0  0  0  0
    1.4659    2.5994    2.6965 H   0  0  0  0  0  0  0  0  0  0  0  0
    0.4315   -2.6569   -0.8448 H   0  0  0  0  0  0  0  0  0  0  0  0
    0.0767   -0.9951   -1.4426 H   0  0  0  0  0  0  0  0  0  0  0  0
   -2.8345    0.3151    3.5872 H   0  0  0  0  0  0  0  0  0  0  0  0
   -3.3174   -1.0236    2.5108 H   0  0  0  0  0  0  0  0  0  0  0  0
   -1.0493   -2.0339    2.7428 H   0  0  0  0  0  0  0  0  0  0  0  0
   -0.5372   -0.6822    3.7503 H   0  0  0  0  0  0  0  0  0  0  0  0
   -1.7809   -1.7989    4.3380 H   0  0  0  0  0  0  0  0  0  0  0  0
   -4.4787   -1.6837   -0.7547 H   0  0  0  0  0  0  0  0  0  0  0  0
   -5.6587   -0.3663   -0.4789 H   0  0  0  0  0  0  0  0  0  0  0  0
   -4.4363    1.0256   -2.1783 H   0  0  0  0  0  0  0  0  0  0  0  0
   -3.3196   -0.3110   -2.4593 H   0  0  0  0  0  0  0  0  0  0  0  0
   -5.0284   -0.4889   -2.8850 H   0  0  0  0  0  0  0  0  0  0  0  0
  1  2  1  0  0  0  0
  2  3  1  0  0  0  0
  3  4  2  0  0  0  0
  4  5  2  0  0  0  0
  4  6  2  0  0  0  0
  6  7  1  0  0  0  0
  7  8  1  0  0  0  0
  4  9  1  0  0  0  0
  9 10  1  0  0  0  0
 10 11  1  0  0  0  0
 11 12  1  0  0  0  0
 12 13  2  0  0  0  0
 12 14  2  0  0  0  0
 14 15  1  0  0  0  0
 15 16  1  0  0  0  0
 12 17  2  0  0  0  0
 17 18  1  0  0  0  0
 18 19  1  0  0  0  0
  1 20  1  0  0  0  0
  1 21  1  0  0  0  0
  1 22  1  0  0  0  0
  2 23  1  0  0  0  0
  2 24  1  0  0  0  0
  7 25  1  0  0  0  0
  7 26  1  0  0  0  0
  8 27  1  0  0  0  0
  8 28  1  0  0  0  0
  8 29  1  0  0  0  0
 10 30  1  0  0  0  0
 10 31  1  0  0  0  0
 15 32  1  0  0  0  0
 15 33  1  0  0  0  0
 16 34  1  0  0  0  0
 16 35  1  0  0  0  0
 16 36  1  0  0  0  0
 18 37  1  0  0  0  0
 18 38  1  0  0  0  0
 19 39  1  0  0  0  0
 19 40  1  0  0  0  0
 19 41  1  0  0  0  0
M  END
