 xtb: 6.7.1 (edcfbbe)
          04092505213D

 41 40  0     0  0            999 V2000
    0.7542   -1.9685    2.8505 C   0  0  0  0  0  0  0  0  0  0  0  0
    1.8482   -1.0419    2.3614 C   0  0  0  0  0  0  0  0  0  0  0  0
    2.1598   -1.4030    0.9899 O   0  0  0  0  0  0  0  0  0  0  0  0
    2.6918   -0.3654   -0.0689 P   0  0  0  0  0  0  0  0  0  0  0  0
    3.1284   -1.2268   -1.7695 S   0  0  0  0  0  0  0  0  0  0  0  0
    3.8963    0.3172    0.7123 O   0  0  0  0  0  0  0  0  0  0  0  0
    4.9339    1.0664    0.0536 C   0  0  0  0  0  0  0  0  0  0  0  0
    4.4079    2.3238   -0.6072 C   0  0  0  0  0  0  0  0  0  0  0  0
    1.2060    1.1652   -0.1598 S   0  0  0  0  0  0  0  0  0  0  0  0
    0.1243    0.3059   -1.3249 C   0  0  0  0  0  0  0  0  0  0  0  0
   -0.9400   -0.9176   -0.5258 S   0  0  0  0  0  0  0  0  0  0  0  0
   -2.7034    0.2902   -0.3004 P   0  0  0  0  0  0  0  0  0  0  0  0
   -2.8094    1.8659   -1.4541 S   0  0  0  0  0  0  0  0  0  0  0  0
   -2.8510    0.4958    1.2732 O   0  0  0  0  0  0  0  0  0  0  0  0
   -1.8553    1.0708    2.1369 C   0  0  0  0  0  0  0  0  0  0  0  0
   -1.6111    2.5394    1.8568 C   0  0  0  0  0  0  0  0  0  0  0  0
   -3.8996   -0.6860   -0.5887 O   0  0  0  0  0  0  0  0  0  0  0  0
   -4.0778   -1.9423    0.1180 C   0  0  0  0  0  0  0  0  0  0  0  0
   -5.0232   -2.7985   -0.6978 C   0  0  0  0  0  0  0  0  0  0  0  0
    0.4992   -1.7123    3.8736 H   0  0  0  0  0  0  0  0  0  0  0  0
   -0.1275   -1.8760    2.2208 H   0  0  0  0  0  0  0  0  0  0  0  0
    1.0958   -2.9985    2.8099 H   0  0  0  0  0  0  0  0  0  0  0  0
    2.7639   -1.1559    2.9439 H   0  0  0  0  0  0  0  0  0  0  0  0
    1.5367    0.0070    2.3856 H   0  0  0  0  0  0  0  0  0  0  0  0
    5.6349    1.2964    0.8573 H   0  0  0  0  0  0  0  0  0  0  0  0
    5.4129    0.4156   -0.6842 H   0  0  0  0  0  0  0  0  0  0  0  0
    3.8327    2.9140    0.1019 H   0  0  0  0  0  0  0  0  0  0  0  0
    5.2436    2.9123   -0.9722 H   0  0  0  0  0  0  0  0  0  0  0  0
    3.7685    2.0639   -1.4497 H   0  0  0  0  0  0  0  0  0  0  0  0
    0.7433   -0.2223   -2.0517 H   0  0  0  0  0  0  0  0  0  0  0  0
   -0.5042    1.0582   -1.8077 H   0  0  0  0  0  0  0  0  0  0  0  0
   -2.2672    0.9193    3.1362 H   0  0  0  0  0  0  0  0  0  0  0  0
   -0.9292    0.4991    2.0282 H   0  0  0  0  0  0  0  0  0  0  0  0
   -1.1458    2.6709    0.8812 H   0  0  0  0  0  0  0  0  0  0  0  0
   -2.5500    3.0868    1.8685 H   0  0  0  0  0  0  0  0  0  0  0  0
   -0.9492    2.9435    2.6158 H   0  0  0  0  0  0  0  0  0  0  0  0
   -3.1002   -2.4205    0.2285 H   0  0  0  0  0  0  0  0  0  0  0  0
   -4.4870   -1.7151    1.1039 H   0  0  0  0  0  0  0  0  0  0  0  0
   -5.1938   -3.7360   -0.1785 H   0  0  0  0  0  0  0  0  0  0  0  0
   -5.9695   -2.2825   -0.8320 H   0  0  0  0  0  0  0  0  0  0  0  0
   -4.5954   -3.0020   -1.6756 H   0  0  0  0  0  0  0  0  0  0  0  0
  1  2  1  0  0  0  0
  2  3  1  0  0  0  0
  3  4  2  0  0  0  0
  4  5  2  0  0  0  0
  4  6  2  0  0  0  0
  6  7  1  0  0  0  0
  7  8  1  0  0  0  0
  4  9  1  0  0  0  0
  9 10  1  0  0  0  0
 10 11  1  0  0  0  0
 11 12  1  0  0  0  0
 12 13  2  0  0  0  0
 12 14  2  0  0  0  0
 14 15  1  0  0  0  0
 15 16  1  0  0  0  0
 12 17  2  0  0  0  0
 17 18  1  0  0  0  0
 18 19  1  0  0  0  0
  1 20  1  0  0  0  0
  1 21  1  0  0  0  0
  1 22  1  0  0  0  0
  2 23  1  0  0  0  0
  2 24  1  0  0  0  0
  7 25  1  0  0  0  0
  7 26  1  0  0  0  0
  8 27  1  0  0  0  0
  8 28  1  0  0  0  0
  8 29  1  0  0  0  0
 10 30  1  0  0  0  0
 10 31  1  0  0  0  0
 15 32  1  0  0  0  0
 15 33  1  0  0  0  0
 16 34  1  0  0  0  0
 16 35  1  0  0  0  0
 16 36  1  0  0  0  0
 18 37  1  0  0  0  0
 18 38  1  0  0  0  0
 19 39  1  0  0  0  0
 19 40  1  0  0  0  0
 19 41  1  0  0  0  0
M  END
