 xtb: 6.7.1 (edcfbbe)
          04032519433D

  8  7  0     0  0            999 V2000
    0.7018   -0.0003   -1.1795 C   0  0  0  0  0  0  0  0  0  0  0  0
   -0.3688   -0.0000   -0.1092 C   0  0  0  0  0  0  0  0  0  0  0  0
   -1.9660    0.0015   -0.8936 Cl  0  0  0  0  0  0  0  0  0  0  0  0
   -0.2498   -1.4448    0.9238 Cl  0  0  0  0  0  0  0  0  0  0  0  0
   -0.2480    1.4435    0.9255 Cl  0  0  0  0  0  0  0  0  0  0  0  0
    2.3157    0.0000   -0.4173 Cl  0  0  0  0  0  0  0  0  0  0  0  0
    0.6212    0.8972   -1.7925 H   0  0  0  0  0  0  0  0  0  0  0  0
    0.6216   -0.8985   -1.7915 H   0  0  0  0  0  0  0  0  0  0  0  0
  1  2  1  0  0  0  0
  2  3  1  0  0  0  0
  2  4  1  0  0  0  0
  2  5  1  0  0  0  0
  1  6  1  0  0  0  0
  1  7  1  0  0  0  0
  1  8  1  0  0  0  0
M  END
