 xtb: 6.7.1 (edcfbbe)
          04092505203D

 41 40  0     0  0            999 V2000
    3.6106   -1.8231   -2.4427 C   0  0  0  0  0  0  0  0  0  0  0  0
    3.9246   -0.3527   -2.2598 C   0  0  0  0  0  0  0  0  0  0  0  0
    3.5514    0.1271   -0.9557 O   0  0  0  0  0  0  0  0  0  0  0  0
    2.0366    0.2083   -0.4725 P   0  0  0  0  0  0  0  0  0  0  0  0
    0.7787    0.8027   -1.8477 S   0  0  0  0  0  0  0  0  0  0  0  0
    2.1182    1.2362    0.7189 O   0  0  0  0  0  0  0  0  0  0  0  0
    3.1084    1.2062    1.7800 C   0  0  0  0  0  0  0  0  0  0  0  0
    2.5313    0.5990    3.0438 C   0  0  0  0  0  0  0  0  0  0  0  0
    1.7519   -1.7134    0.3859 S   0  0  0  0  0  0  0  0  0  0  0  0
    0.1112   -1.5046    1.1265 C   0  0  0  0  0  0  0  0  0  0  0  0
   -1.2482   -1.4777   -0.0793 S   0  0  0  0  0  0  0  0  0  0  0  0
   -2.0480    0.4661    0.2867 P   0  0  0  0  0  0  0  0  0  0  0  0
   -1.0419    1.5472    1.5736 S   0  0  0  0  0  0  0  0  0  0  0  0
   -3.5738    0.1605    0.6446 O   0  0  0  0  0  0  0  0  0  0  0  0
   -4.0313   -0.8063    1.6055 C   0  0  0  0  0  0  0  0  0  0  0  0
   -3.6055   -0.4726    3.0207 C   0  0  0  0  0  0  0  0  0  0  0  0
   -2.2338    1.2721   -1.0494 O   0  0  0  0  0  0  0  0  0  0  0  0
   -3.1548    0.9621   -2.1219 C   0  0  0  0  0  0  0  0  0  0  0  0
   -2.8270   -0.3487   -2.8047 C   0  0  0  0  0  0  0  0  0  0  0  0
    2.5319   -1.9732   -2.4563 H   0  0  0  0  0  0  0  0  0  0  0  0
    4.0237   -2.1618   -3.3874 H   0  0  0  0  0  0  0  0  0  0  0  0
    4.0366   -2.4066   -1.6303 H   0  0  0  0  0  0  0  0  0  0  0  0
    3.4016    0.2490   -3.0097 H   0  0  0  0  0  0  0  0  0  0  0  0
    4.9969   -0.1579   -2.3084 H   0  0  0  0  0  0  0  0  0  0  0  0
    3.9867    0.6606    1.4307 H   0  0  0  0  0  0  0  0  0  0  0  0
    3.3601    2.2573    1.9302 H   0  0  0  0  0  0  0  0  0  0  0  0
    1.5714    1.0613    3.2654 H   0  0  0  0  0  0  0  0  0  0  0  0
    2.3962   -0.4740    2.9340 H   0  0  0  0  0  0  0  0  0  0  0  0
    3.2138    0.7859    3.8667 H   0  0  0  0  0  0  0  0  0  0  0  0
    0.0779   -0.5695    1.6949 H   0  0  0  0  0  0  0  0  0  0  0  0
   -0.0283   -2.3720    1.7663 H   0  0  0  0  0  0  0  0  0  0  0  0
   -5.1174   -0.7752    1.5004 H   0  0  0  0  0  0  0  0  0  0  0  0
   -3.6586   -1.7911    1.3086 H   0  0  0  0  0  0  0  0  0  0  0  0
   -2.5217   -0.5163    3.1109 H   0  0  0  0  0  0  0  0  0  0  0  0
   -3.9277    0.5316    3.2850 H   0  0  0  0  0  0  0  0  0  0  0  0
   -4.0500   -1.1862    3.7069 H   0  0  0  0  0  0  0  0  0  0  0  0
   -4.1667    0.9568   -1.7116 H   0  0  0  0  0  0  0  0  0  0  0  0
   -3.0293    1.8063   -2.8017 H   0  0  0  0  0  0  0  0  0  0  0  0
   -3.0143   -1.1879   -2.1366 H   0  0  0  0  0  0  0  0  0  0  0  0
   -3.4479   -0.4541   -3.6887 H   0  0  0  0  0  0  0  0  0  0  0  0
   -1.7792   -0.3593   -3.0985 H   0  0  0  0  0  0  0  0  0  0  0  0
  1  2  1  0  0  0  0
  2  3  1  0  0  0  0
  3  4  2  0  0  0  0
  4  5  2  0  0  0  0
  4  6  2  0  0  0  0
  6  7  1  0  0  0  0
  7  8  1  0  0  0  0
  4  9  1  0  0  0  0
  9 10  1  0  0  0  0
 10 11  1  0  0  0  0
 11 12  1  0  0  0  0
 12 13  2  0  0  0  0
 12 14  2  0  0  0  0
 14 15  1  0  0  0  0
 15 16  1  0  0  0  0
 12 17  2  0  0  0  0
 17 18  1  0  0  0  0
 18 19  1  0  0  0  0
  1 20  1  0  0  0  0
  1 21  1  0  0  0  0
  1 22  1  0  0  0  0
  2 23  1  0  0  0  0
  2 24  1  0  0  0  0
  7 25  1  0  0  0  0
  7 26  1  0  0  0  0
  8 27  1  0  0  0  0
  8 28  1  0  0  0  0
  8 29  1  0  0  0  0
 10 30  1  0  0  0  0
 10 31  1  0  0  0  0
 15 32  1  0  0  0  0
 15 33  1  0  0  0  0
 16 34  1  0  0  0  0
 16 35  1  0  0  0  0
 16 36  1  0  0  0  0
 18 37  1  0  0  0  0
 18 38  1  0  0  0  0
 19 39  1  0  0  0  0
 19 40  1  0  0  0  0
 19 41  1  0  0  0  0
M  END
