 xtb: 6.7.1 (edcfbbe)
          04092505213D

 41 40  0     0  0            999 V2000
    4.9937    1.2863   -1.1191 C   0  0  0  0  0  0  0  0  0  0  0  0
    4.8433    0.5929    0.2192 C   0  0  0  0  0  0  0  0  0  0  0  0
    3.7786   -0.3743    0.2052 O   0  0  0  0  0  0  0  0  0  0  0  0
    2.2495    0.0471    0.0901 P   0  0  0  0  0  0  0  0  0  0  0  0
    1.7921    1.6405    1.1450 S   0  0  0  0  0  0  0  0  0  0  0  0
    1.5179   -1.3015    0.4845 O   0  0  0  0  0  0  0  0  0  0  0  0
    1.4297   -1.7415    1.8559 C   0  0  0  0  0  0  0  0  0  0  0  0
    0.3878   -2.8384    1.9260 C   0  0  0  0  0  0  0  0  0  0  0  0
    1.8414    0.0840   -1.9695 S   0  0  0  0  0  0  0  0  0  0  0  0
    0.0951    0.5389   -1.8735 C   0  0  0  0  0  0  0  0  0  0  0  0
   -0.9648   -0.9229   -1.5454 S   0  0  0  0  0  0  0  0  0  0  0  0
   -2.2140   -0.1493   -0.0492 P   0  0  0  0  0  0  0  0  0  0  0  0
   -3.6841   -1.3232    0.4972 S   0  0  0  0  0  0  0  0  0  0  0  0
   -2.6833    1.2996   -0.5397 O   0  0  0  0  0  0  0  0  0  0  0  0
   -3.9093    1.4910   -1.2644 C   0  0  0  0  0  0  0  0  0  0  0  0
   -3.7845    1.0439   -2.7070 C   0  0  0  0  0  0  0  0  0  0  0  0
   -1.1345    0.2505    1.0460 O   0  0  0  0  0  0  0  0  0  0  0  0
   -1.5151    0.9910    2.2302 C   0  0  0  0  0  0  0  0  0  0  0  0
   -1.9048    0.0663    3.3654 C   0  0  0  0  0  0  0  0  0  0  0  0
    4.1205    1.9066   -1.3169 H   0  0  0  0  0  0  0  0  0  0  0  0
    5.8772    1.9163   -1.1006 H   0  0  0  0  0  0  0  0  0  0  0  0
    5.0879    0.5528   -1.9158 H   0  0  0  0  0  0  0  0  0  0  0  0
    4.6383    1.3211    1.0107 H   0  0  0  0  0  0  0  0  0  0  0  0
    5.7269    0.0063    0.4733 H   0  0  0  0  0  0  0  0  0  0  0  0
    2.4144   -2.1058    2.1593 H   0  0  0  0  0  0  0  0  0  0  0  0
    1.1576   -0.8812    2.4772 H   0  0  0  0  0  0  0  0  0  0  0  0
    0.3188   -3.2058    2.9449 H   0  0  0  0  0  0  0  0  0  0  0  0
   -0.5842   -2.4588    1.6162 H   0  0  0  0  0  0  0  0  0  0  0  0
    0.6643   -3.6547    1.2649 H   0  0  0  0  0  0  0  0  0  0  0  0
   -0.1697    0.9383   -2.8486 H   0  0  0  0  0  0  0  0  0  0  0  0
   -0.0491    1.2731   -1.0812 H   0  0  0  0  0  0  0  0  0  0  0  0
   -4.7027    0.9337   -0.7557 H   0  0  0  0  0  0  0  0  0  0  0  0
   -4.0994    2.5626   -1.1883 H   0  0  0  0  0  0  0  0  0  0  0  0
   -4.7116    1.2590   -3.2284 H   0  0  0  0  0  0  0  0  0  0  0  0
   -2.9681    1.5670   -3.1978 H   0  0  0  0  0  0  0  0  0  0  0  0
   -3.5966   -0.0283   -2.7493 H   0  0  0  0  0  0  0  0  0  0  0  0
   -0.6261    1.5772    2.4755 H   0  0  0  0  0  0  0  0  0  0  0  0
   -2.3337    1.6677    1.9747 H   0  0  0  0  0  0  0  0  0  0  0  0
   -2.7719   -0.5299    3.0890 H   0  0  0  0  0  0  0  0  0  0  0  0
   -1.0842   -0.6024    3.6100 H   0  0  0  0  0  0  0  0  0  0  0  0
   -2.1493    0.6651    4.2371 H   0  0  0  0  0  0  0  0  0  0  0  0
  1  2  1  0  0  0  0
  2  3  1  0  0  0  0
  3  4  2  0  0  0  0
  4  5  2  0  0  0  0
  4  6  2  0  0  0  0
  6  7  1  0  0  0  0
  7  8  1  0  0  0  0
  4  9  1  0  0  0  0
  9 10  1  0  0  0  0
 10 11  1  0  0  0  0
 11 12  1  0  0  0  0
 12 13  2  0  0  0  0
 12 14  1  0  0  0  0
 14 15  1  0  0  0  0
 15 16  1  0  0  0  0
 12 17  1  0  0  0  0
 17 18  1  0  0  0  0
 18 19  1  0  0  0  0
  1 20  1  0  0  0  0
  1 21  1  0  0  0  0
  1 22  1  0  0  0  0
  2 23  1  0  0  0  0
  2 24  1  0  0  0  0
  7 25  1  0  0  0  0
  7 26  1  0  0  0  0
  8 27  1  0  0  0  0
  8 28  1  0  0  0  0
  8 29  1  0  0  0  0
 10 30  1  0  0  0  0
 10 31  1  0  0  0  0
 15 32  1  0  0  0  0
 15 33  1  0  0  0  0
 16 34  1  0  0  0  0
 16 35  1  0  0  0  0
 16 36  1  0  0  0  0
 18 37  1  0  0  0  0
 18 38  1  0  0  0  0
 19 39  1  0  0  0  0
 19 40  1  0  0  0  0
 19 41  1  0  0  0  0
M  END
