 xtb: 6.7.1 (edcfbbe)
          04092505213D

 41 40  0     0  0            999 V2000
    4.0004    1.7224   -1.2895 C   0  0  0  0  0  0  0  0  0  0  0  0
    2.7456    1.0891   -1.8494 C   0  0  0  0  0  0  0  0  0  0  0  0
    2.4967   -0.2068   -1.2681 O   0  0  0  0  0  0  0  0  0  0  0  0
    2.1765   -0.4087    0.2647 P   0  0  0  0  0  0  0  0  0  0  0  0
    1.1189    0.9951    1.1427 S   0  0  0  0  0  0  0  0  0  0  0  0
    3.6182   -0.6511    0.8845 O   0  0  0  0  0  0  0  0  0  0  0  0
    3.8293   -0.8187    2.3022 C   0  0  0  0  0  0  0  0  0  0  0  0
    4.2988    0.4803    2.9284 C   0  0  0  0  0  0  0  0  0  0  0  0
    1.4144   -2.3769    0.2335 S   0  0  0  0  0  0  0  0  0  0  0  0
   -0.1980   -2.1101   -0.5499 C   0  0  0  0  0  0  0  0  0  0  0  0
   -1.4319   -1.3771    0.5709 S   0  0  0  0  0  0  0  0  0  0  0  0
   -2.1175    0.1796   -0.7190 P   0  0  0  0  0  0  0  0  0  0  0  0
   -0.8224    0.9101   -1.9887 S   0  0  0  0  0  0  0  0  0  0  0  0
   -2.8308    1.1953    0.2637 O   0  0  0  0  0  0  0  0  0  0  0  0
   -2.1268    2.1020    1.1349 C   0  0  0  0  0  0  0  0  0  0  0  0
   -3.1336    3.1040    1.6603 C   0  0  0  0  0  0  0  0  0  0  0  0
   -3.3277   -0.4491   -1.5074 O   0  0  0  0  0  0  0  0  0  0  0  0
   -4.4772   -1.0600   -0.8695 C   0  0  0  0  0  0  0  0  0  0  0  0
   -5.6097   -0.0643   -0.7270 C   0  0  0  0  0  0  0  0  0  0  0  0
    3.8613    1.9411   -0.2314 H   0  0  0  0  0  0  0  0  0  0  0  0
    4.8433    1.0454   -1.4021 H   0  0  0  0  0  0  0  0  0  0  0  0
    4.2023    2.6482   -1.8189 H   0  0  0  0  0  0  0  0  0  0  0  0
    2.8295    0.8805   -2.9167 H   0  0  0  0  0  0  0  0  0  0  0  0
    1.8696    1.7219   -1.6743 H   0  0  0  0  0  0  0  0  0  0  0  0
    2.9029   -1.1651    2.7688 H   0  0  0  0  0  0  0  0  0  0  0  0
    4.5891   -1.5982    2.3798 H   0  0  0  0  0  0  0  0  0  0  0  0
    3.5242    1.2393    2.8406 H   0  0  0  0  0  0  0  0  0  0  0  0
    4.5124    0.3135    3.9791 H   0  0  0  0  0  0  0  0  0  0  0  0
    5.1972    0.8323    2.4293 H   0  0  0  0  0  0  0  0  0  0  0  0
   -0.5442   -3.0968   -0.8458 H   0  0  0  0  0  0  0  0  0  0  0  0
   -0.0778   -1.4505   -1.4131 H   0  0  0  0  0  0  0  0  0  0  0  0
   -1.6705    1.5256    1.9437 H   0  0  0  0  0  0  0  0  0  0  0  0
   -1.3278    2.5891    0.5677 H   0  0  0  0  0  0  0  0  0  0  0  0
   -3.5808    3.6514    0.8353 H   0  0  0  0  0  0  0  0  0  0  0  0
   -3.9152    2.5910    2.2130 H   0  0  0  0  0  0  0  0  0  0  0  0
   -2.6255    3.8000    2.3193 H   0  0  0  0  0  0  0  0  0  0  0  0
   -4.7501   -1.8795   -1.5368 H   0  0  0  0  0  0  0  0  0  0  0  0
   -4.1714   -1.4578    0.1024 H   0  0  0  0  0  0  0  0  0  0  0  0
   -5.8620    0.3530   -1.6980 H   0  0  0  0  0  0  0  0  0  0  0  0
   -6.4778   -0.5716   -0.3178 H   0  0  0  0  0  0  0  0  0  0  0  0
   -5.3201    0.7452   -0.0627 H   0  0  0  0  0  0  0  0  0  0  0  0
  1  2  1  0  0  0  0
  2  3  1  0  0  0  0
  3  4  2  0  0  0  0
  4  5  2  0  0  0  0
  4  6  2  0  0  0  0
  6  7  1  0  0  0  0
  7  8  1  0  0  0  0
  4  9  1  0  0  0  0
  9 10  1  0  0  0  0
 10 11  1  0  0  0  0
 11 12  1  0  0  0  0
 12 13  2  0  0  0  0
 12 14  2  0  0  0  0
 14 15  1  0  0  0  0
 15 16  1  0  0  0  0
 12 17  2  0  0  0  0
 17 18  1  0  0  0  0
 18 19  1  0  0  0  0
  1 20  1  0  0  0  0
  1 21  1  0  0  0  0
  1 22  1  0  0  0  0
  2 23  1  0  0  0  0
  2 24  1  0  0  0  0
  7 25  1  0  0  0  0
  7 26  1  0  0  0  0
  8 27  1  0  0  0  0
  8 28  1  0  0  0  0
  8 29  1  0  0  0  0
 10 30  1  0  0  0  0
 10 31  1  0  0  0  0
 15 32  1  0  0  0  0
 15 33  1  0  0  0  0
 16 34  1  0  0  0  0
 16 35  1  0  0  0  0
 16 36  1  0  0  0  0
 18 37  1  0  0  0  0
 18 38  1  0  0  0  0
 19 39  1  0  0  0  0
 19 40  1  0  0  0  0
 19 41  1  0  0  0  0
M  END
