 xtb: 6.7.1 (edcfbbe)
          04092505203D

 41 40  0     0  0            999 V2000
    4.6020    0.0356   -1.8927 C   0  0  0  0  0  0  0  0  0  0  0  0
    4.4448    1.0066   -0.7403 C   0  0  0  0  0  0  0  0  0  0  0  0
    3.5807    0.4986    0.2903 O   0  0  0  0  0  0  0  0  0  0  0  0
    2.0231    0.2767    0.0742 P   0  0  0  0  0  0  0  0  0  0  0  0
    1.1514    1.6793   -0.9803 S   0  0  0  0  0  0  0  0  0  0  0  0
    1.4655    0.2306    1.5478 O   0  0  0  0  0  0  0  0  0  0  0  0
    1.6400   -0.8376    2.5130 C   0  0  0  0  0  0  0  0  0  0  0  0
    3.0915   -1.1938    2.7458 C   0  0  0  0  0  0  0  0  0  0  0  0
    1.8749   -1.6951   -0.7040 S   0  0  0  0  0  0  0  0  0  0  0  0
    0.1414   -1.6413   -1.2015 C   0  0  0  0  0  0  0  0  0  0  0  0
   -1.0045   -1.7048    0.2231 S   0  0  0  0  0  0  0  0  0  0  0  0
   -2.0806    0.0808   -0.0409 P   0  0  0  0  0  0  0  0  0  0  0  0
   -2.2698    0.7784   -1.8668 S   0  0  0  0  0  0  0  0  0  0  0  0
   -1.3696    0.9986    1.0375 O   0  0  0  0  0  0  0  0  0  0  0  0
   -1.5335    2.4283    1.0716 C   0  0  0  0  0  0  0  0  0  0  0  0
   -2.9507    2.8345    1.4141 C   0  0  0  0  0  0  0  0  0  0  0  0
   -3.4601   -0.2307    0.6884 O   0  0  0  0  0  0  0  0  0  0  0  0
   -4.5989   -0.7694   -0.0041 C   0  0  0  0  0  0  0  0  0  0  0  0
   -4.3749   -2.1987   -0.4544 C   0  0  0  0  0  0  0  0  0  0  0  0
    4.8859   -0.9471   -1.5253 H   0  0  0  0  0  0  0  0  0  0  0  0
    3.6644   -0.0502   -2.4395 H   0  0  0  0  0  0  0  0  0  0  0  0
    5.3678    0.4039   -2.5678 H   0  0  0  0  0  0  0  0  0  0  0  0
    4.0390    1.9599   -1.0937 H   0  0  0  0  0  0  0  0  0  0  0  0
    5.3908    1.1752   -0.2238 H   0  0  0  0  0  0  0  0  0  0  0  0
    1.1720   -0.4327    3.4116 H   0  0  0  0  0  0  0  0  0  0  0  0
    1.0731   -1.7069    2.1668 H   0  0  0  0  0  0  0  0  0  0  0  0
    3.1491   -1.9172    3.5533 H   0  0  0  0  0  0  0  0  0  0  0  0
    3.5222   -1.6306    1.8473 H   0  0  0  0  0  0  0  0  0  0  0  0
    3.6598   -0.3072    3.0142 H   0  0  0  0  0  0  0  0  0  0  0  0
   -0.0269   -2.5276   -1.8072 H   0  0  0  0  0  0  0  0  0  0  0  0
   -0.0587   -0.7288   -1.7700 H   0  0  0  0  0  0  0  0  0  0  0  0
   -0.8188    2.7508    1.8308 H   0  0  0  0  0  0  0  0  0  0  0  0
   -1.2325    2.8335    0.0992 H   0  0  0  0  0  0  0  0  0  0  0  0
   -3.2698    2.3445    2.3303 H   0  0  0  0  0  0  0  0  0  0  0  0
   -2.9914    3.9116    1.5430 H   0  0  0  0  0  0  0  0  0  0  0  0
   -3.6237    2.5495    0.6063 H   0  0  0  0  0  0  0  0  0  0  0  0
   -5.4057   -0.6984    0.7266 H   0  0  0  0  0  0  0  0  0  0  0  0
   -4.8149   -0.1271   -0.8640 H   0  0  0  0  0  0  0  0  0  0  0  0
   -5.3026   -2.5981   -0.8513 H   0  0  0  0  0  0  0  0  0  0  0  0
   -3.6164   -2.2272   -1.2354 H   0  0  0  0  0  0  0  0  0  0  0  0
   -4.0439   -2.8112    0.3805 H   0  0  0  0  0  0  0  0  0  0  0  0
  1  2  1  0  0  0  0
  2  3  1  0  0  0  0
  3  4  2  0  0  0  0
  4  5  2  0  0  0  0
  4  6  2  0  0  0  0
  6  7  1  0  0  0  0
  7  8  1  0  0  0  0
  4  9  1  0  0  0  0
  9 10  1  0  0  0  0
 10 11  1  0  0  0  0
 11 12  1  0  0  0  0
 12 13  2  0  0  0  0
 12 14  2  0  0  0  0
 14 15  1  0  0  0  0
 15 16  1  0  0  0  0
 12 17  2  0  0  0  0
 17 18  1  0  0  0  0
 18 19  1  0  0  0  0
  1 20  1  0  0  0  0
  1 21  1  0  0  0  0
  1 22  1  0  0  0  0
  2 23  1  0  0  0  0
  2 24  1  0  0  0  0
  7 25  1  0  0  0  0
  7 26  1  0  0  0  0
  8 27  1  0  0  0  0
  8 28  1  0  0  0  0
  8 29  1  0  0  0  0
 10 30  1  0  0  0  0
 10 31  1  0  0  0  0
 15 32  1  0  0  0  0
 15 33  1  0  0  0  0
 16 34  1  0  0  0  0
 16 35  1  0  0  0  0
 16 36  1  0  0  0  0
 18 37  1  0  0  0  0
 18 38  1  0  0  0  0
 19 39  1  0  0  0  0
 19 40  1  0  0  0  0
 19 41  1  0  0  0  0
M  END
