 xtb: 6.7.1 (edcfbbe)
          04092505213D

 41 40  0     0  0            999 V2000
    4.4237    1.6904   -0.2225 C   0  0  0  0  0  0  0  0  0  0  0  0
    3.2858    0.9890   -0.9351 C   0  0  0  0  0  0  0  0  0  0  0  0
    2.0560    1.1045   -0.1689 O   0  0  0  0  0  0  0  0  0  0  0  0
    1.5375   -0.0271    0.8057 P   0  0  0  0  0  0  0  0  0  0  0  0
    0.4011    0.6327    2.2623 S   0  0  0  0  0  0  0  0  0  0  0  0
    2.9056   -0.6227    1.3769 O   0  0  0  0  0  0  0  0  0  0  0  0
    2.9477   -1.4299    2.5612 C   0  0  0  0  0  0  0  0  0  0  0  0
    2.2396   -2.7555    2.3696 C   0  0  0  0  0  0  0  0  0  0  0  0
    0.9694   -1.6445   -0.4998 S   0  0  0  0  0  0  0  0  0  0  0  0
    0.4912   -0.8349   -2.0467 C   0  0  0  0  0  0  0  0  0  0  0  0
   -1.3046   -0.8030   -2.3961 S   0  0  0  0  0  0  0  0  0  0  0  0
   -1.9586    0.2906   -0.7279 P   0  0  0  0  0  0  0  0  0  0  0  0
   -3.7155    1.1426   -0.8076 S   0  0  0  0  0  0  0  0  0  0  0  0
   -0.7387    1.2910   -0.4383 O   0  0  0  0  0  0  0  0  0  0  0  0
   -0.7865    2.6753   -0.8260 C   0  0  0  0  0  0  0  0  0  0  0  0
   -0.5939    2.8533   -2.3187 C   0  0  0  0  0  0  0  0  0  0  0  0
   -1.7724   -0.8038    0.4026 O   0  0  0  0  0  0  0  0  0  0  0  0
   -2.6403   -0.9674    1.5441 C   0  0  0  0  0  0  0  0  0  0  0  0
   -3.1768   -2.3839    1.5537 C   0  0  0  0  0  0  0  0  0  0  0  0
    5.3082    1.6575   -0.8510 H   0  0  0  0  0  0  0  0  0  0  0  0
    4.1609    2.7264   -0.0263 H   0  0  0  0  0  0  0  0  0  0  0  0
    4.6370    1.1989    0.7227 H   0  0  0  0  0  0  0  0  0  0  0  0
    3.5132   -0.0670   -1.0949 H   0  0  0  0  0  0  0  0  0  0  0  0
    3.0663    1.4744   -1.8886 H   0  0  0  0  0  0  0  0  0  0  0  0
    4.0132   -1.5658    2.7515 H   0  0  0  0  0  0  0  0  0  0  0  0
    2.4910   -0.8654    3.3809 H   0  0  0  0  0  0  0  0  0  0  0  0
    1.1771   -2.5810    2.1971 H   0  0  0  0  0  0  0  0  0  0  0  0
    2.6488   -3.2873    1.5145 H   0  0  0  0  0  0  0  0  0  0  0  0
    2.3550   -3.3603    3.2632 H   0  0  0  0  0  0  0  0  0  0  0  0
    0.9142   -1.4276   -2.8542 H   0  0  0  0  0  0  0  0  0  0  0  0
    0.8706    0.1822   -2.0567 H   0  0  0  0  0  0  0  0  0  0  0  0
   -1.7513    3.0848   -0.5111 H   0  0  0  0  0  0  0  0  0  0  0  0
    0.0161    3.1375   -0.2483 H   0  0  0  0  0  0  0  0  0  0  0  0
   -0.6424    3.9110   -2.5571 H   0  0  0  0  0  0  0  0  0  0  0  0
    0.3694    2.4622   -2.6359 H   0  0  0  0  0  0  0  0  0  0  0  0
   -1.3865    2.3339   -2.8574 H   0  0  0  0  0  0  0  0  0  0  0  0
   -2.0303   -0.7528    2.4251 H   0  0  0  0  0  0  0  0  0  0  0  0
   -3.4509   -0.2337    1.4798 H   0  0  0  0  0  0  0  0  0  0  0  0
   -3.7936   -2.5553    0.6745 H   0  0  0  0  0  0  0  0  0  0  0  0
   -2.3545   -3.0942    1.5518 H   0  0  0  0  0  0  0  0  0  0  0  0
   -3.7764   -2.5283    2.4464 H   0  0  0  0  0  0  0  0  0  0  0  0
  1  2  1  0  0  0  0
  2  3  1  0  0  0  0
  3  4  2  0  0  0  0
  4  5  2  0  0  0  0
  4  6  1  0  0  0  0
  6  7  1  0  0  0  0
  7  8  1  0  0  0  0
  4  9  1  0  0  0  0
  9 10  1  0  0  0  0
 10 11  1  0  0  0  0
 11 12  1  0  0  0  0
 12 13  2  0  0  0  0
 12 14  1  0  0  0  0
 14 15  1  0  0  0  0
 15 16  1  0  0  0  0
 12 17  2  0  0  0  0
 17 18  1  0  0  0  0
 18 19  1  0  0  0  0
  1 20  1  0  0  0  0
  1 21  1  0  0  0  0
  1 22  1  0  0  0  0
  2 23  1  0  0  0  0
  2 24  1  0  0  0  0
  7 25  1  0  0  0  0
  7 26  1  0  0  0  0
  8 27  1  0  0  0  0
  8 28  1  0  0  0  0
  8 29  1  0  0  0  0
 10 30  1  0  0  0  0
 10 31  1  0  0  0  0
 15 32  1  0  0  0  0
 15 33  1  0  0  0  0
 16 34  1  0  0  0  0
 16 35  1  0  0  0  0
 16 36  1  0  0  0  0
 18 37  1  0  0  0  0
 18 38  1  0  0  0  0
 19 39  1  0  0  0  0
 19 40  1  0  0  0  0
 19 41  1  0  0  0  0
M  END
