 xtb: 6.7.1 (edcfbbe)
          04092505203D

 41 40  0     0  0            999 V2000
    2.5691    1.9946   -1.7015 C   0  0  0  0  0  0  0  0  0  0  0  0
    3.3234    1.9711   -0.3870 C   0  0  0  0  0  0  0  0  0  0  0  0
    3.3711    0.6519    0.1829 O   0  0  0  0  0  0  0  0  0  0  0  0
    2.1214    0.0084    0.9269 P   0  0  0  0  0  0  0  0  0  0  0  0
    1.1454    1.2367    2.0893 S   0  0  0  0  0  0  0  0  0  0  0  0
    2.7427   -1.1908    1.7411 O   0  0  0  0  0  0  0  0  0  0  0  0
    3.6372   -2.1826    1.1755 C   0  0  0  0  0  0  0  0  0  0  0  0
    5.0840   -1.7858    1.3843 C   0  0  0  0  0  0  0  0  0  0  0  0
    1.0805   -0.9451   -0.6837 S   0  0  0  0  0  0  0  0  0  0  0  0
   -0.1266   -1.8782    0.2929 C   0  0  0  0  0  0  0  0  0  0  0  0
   -1.4597   -0.8683    0.9935 S   0  0  0  0  0  0  0  0  0  0  0  0
   -2.1208   -0.0139   -0.8504 P   0  0  0  0  0  0  0  0  0  0  0  0
   -1.9454   -1.1457   -2.4338 S   0  0  0  0  0  0  0  0  0  0  0  0
   -1.3118    1.3261   -1.0533 O   0  0  0  0  0  0  0  0  0  0  0  0
   -1.3853    2.4534   -0.1472 C   0  0  0  0  0  0  0  0  0  0  0  0
   -2.3207    3.5102   -0.6950 C   0  0  0  0  0  0  0  0  0  0  0  0
   -3.5633    0.5332   -0.4720 O   0  0  0  0  0  0  0  0  0  0  0  0
   -4.6030   -0.2304    0.1679 C   0  0  0  0  0  0  0  0  0  0  0  0
   -4.9221   -1.5182   -0.5616 C   0  0  0  0  0  0  0  0  0  0  0  0
    1.5169    1.7586   -1.5458 H   0  0  0  0  0  0  0  0  0  0  0  0
    2.6449    2.9840   -2.1411 H   0  0  0  0  0  0  0  0  0  0  0  0
    2.9854    1.2627   -2.3891 H   0  0  0  0  0  0  0  0  0  0  0  0
    2.8634    2.6465    0.3421 H   0  0  0  0  0  0  0  0  0  0  0  0
    4.3720    2.2380   -0.5267 H   0  0  0  0  0  0  0  0  0  0  0  0
    3.3978   -3.1011    1.7148 H   0  0  0  0  0  0  0  0  0  0  0  0
    3.4088   -2.3029    0.1129 H   0  0  0  0  0  0  0  0  0  0  0  0
    5.2735   -1.6128    2.4402 H   0  0  0  0  0  0  0  0  0  0  0  0
    5.7249   -2.5879    1.0316 H   0  0  0  0  0  0  0  0  0  0  0  0
    5.3103   -0.8772    0.8333 H   0  0  0  0  0  0  0  0  0  0  0  0
    0.3626   -2.3643    1.1344 H   0  0  0  0  0  0  0  0  0  0  0  0
   -0.5556   -2.6056   -0.3956 H   0  0  0  0  0  0  0  0  0  0  0  0
   -1.7026    2.1046    0.8395 H   0  0  0  0  0  0  0  0  0  0  0  0
   -0.3612    2.8256   -0.0730 H   0  0  0  0  0  0  0  0  0  0  0  0
   -2.3123    4.3677   -0.0298 H   0  0  0  0  0  0  0  0  0  0  0  0
   -1.9936    3.8167   -1.6847 H   0  0  0  0  0  0  0  0  0  0  0  0
   -3.3313    3.1170   -0.7658 H   0  0  0  0  0  0  0  0  0  0  0  0
   -4.2924   -0.4343    1.1967 H   0  0  0  0  0  0  0  0  0  0  0  0
   -5.4569    0.4495    0.1677 H   0  0  0  0  0  0  0  0  0  0  0  0
   -4.0663   -2.1907   -0.5297 H   0  0  0  0  0  0  0  0  0  0  0  0
   -5.7701   -2.0004   -0.0861 H   0  0  0  0  0  0  0  0  0  0  0  0
   -5.1586   -1.3153   -1.6034 H   0  0  0  0  0  0  0  0  0  0  0  0
  1  2  1  0  0  0  0
  2  3  1  0  0  0  0
  3  4  2  0  0  0  0
  4  5  2  0  0  0  0
  4  6  2  0  0  0  0
  6  7  1  0  0  0  0
  7  8  1  0  0  0  0
  4  9  1  0  0  0  0
  9 10  1  0  0  0  0
 10 11  1  0  0  0  0
 11 12  1  0  0  0  0
 12 13  2  0  0  0  0
 12 14  2  0  0  0  0
 14 15  1  0  0  0  0
 15 16  1  0  0  0  0
 12 17  2  0  0  0  0
 17 18  1  0  0  0  0
 18 19  1  0  0  0  0
  1 20  1  0  0  0  0
  1 21  1  0  0  0  0
  1 22  1  0  0  0  0
  2 23  1  0  0  0  0
  2 24  1  0  0  0  0
  7 25  1  0  0  0  0
  7 26  1  0  0  0  0
  8 27  1  0  0  0  0
  8 28  1  0  0  0  0
  8 29  1  0  0  0  0
 10 30  1  0  0  0  0
 10 31  1  0  0  0  0
 15 32  1  0  0  0  0
 15 33  1  0  0  0  0
 16 34  1  0  0  0  0
 16 35  1  0  0  0  0
 16 36  1  0  0  0  0
 18 37  1  0  0  0  0
 18 38  1  0  0  0  0
 19 39  1  0  0  0  0
 19 40  1  0  0  0  0
 19 41  1  0  0  0  0
M  END
