 xtb: 6.7.1 (edcfbbe)
          04092507313D

 38 37  0     0  0            999 V2000
    2.5675   -3.7478    0.3395 C   0  0  0  0  0  0  0  0  0  0  0  0
    3.2648   -2.4332    0.6494 C   0  0  0  0  0  0  0  0  0  0  0  0
    3.1364   -1.5070   -0.4495 O   0  0  0  0  0  0  0  0  0  0  0  0
    2.0566   -0.7785   -0.5484 C   0  0  0  0  0  0  0  0  0  0  0  0
    1.1421   -0.8019    0.2637 O   0  0  0  0  0  0  0  0  0  0  0  0
    2.0520    0.1047   -1.7664 C   0  0  0  0  0  0  0  0  0  0  0  0
    0.8428    1.0232   -1.7536 C   0  0  0  0  0  0  0  0  0  0  0  0
    0.7833    1.6114   -2.6722 H   0  0  0  0  0  0  0  0  0  0  0  0
    0.8230    1.9715   -0.5659 C   0  0  0  0  0  0  0  0  0  0  0  0
    1.6783    1.9850    0.2931 O   0  0  0  0  0  0  0  0  0  0  0  0
   -0.2104    2.7765   -0.6241 O   0  0  0  0  0  0  0  0  0  0  0  0
   -0.4323    3.7292    0.4337 C   0  0  0  0  0  0  0  0  0  0  0  0
   -1.9240    3.8093    0.6992 C   0  0  0  0  0  0  0  0  0  0  0  0
   -0.7451    0.0908   -1.7988 S   0  0  0  0  0  0  0  0  0  0  0  0
   -1.2243   -0.5485    0.1612 P   0  0  0  0  0  0  0  0  0  0  0  0
   -1.1547   -2.4215    0.7647 S   0  0  0  0  0  0  0  0  0  0  0  0
   -0.9078    0.5568    1.2838 O   0  0  0  0  0  0  0  0  0  0  0  0
   -0.0784    0.3484    2.4234 C   0  0  0  0  0  0  0  0  0  0  0  0
   -2.7590   -0.1452   -0.1451 O   0  0  0  0  0  0  0  0  0  0  0  0
   -3.8343   -0.5162    0.7173 C   0  0  0  0  0  0  0  0  0  0  0  0
    1.4909   -3.6018    0.2677 H   0  0  0  0  0  0  0  0  0  0  0  0
    2.9339   -4.1552   -0.5985 H   0  0  0  0  0  0  0  0  0  0  0  0
    2.7651   -4.4543    1.1387 H   0  0  0  0  0  0  0  0  0  0  0  0
    4.3409   -2.5685    0.7571 H   0  0  0  0  0  0  0  0  0  0  0  0
    2.8442   -1.9746    1.5483 H   0  0  0  0  0  0  0  0  0  0  0  0
    2.0338   -0.5263   -2.6564 H   0  0  0  0  0  0  0  0  0  0  0  0
    2.9762    0.6856   -1.7708 H   0  0  0  0  0  0  0  0  0  0  0  0
    0.1246    3.4064    1.3179 H   0  0  0  0  0  0  0  0  0  0  0  0
   -0.0376    4.6880    0.0868 H   0  0  0  0  0  0  0  0  0  0  0  0
   -2.2993    2.8335    0.9979 H   0  0  0  0  0  0  0  0  0  0  0  0
   -2.1120    4.5251    1.4924 H   0  0  0  0  0  0  0  0  0  0  0  0
   -2.4451    4.1193   -0.2015 H   0  0  0  0  0  0  0  0  0  0  0  0
   -0.5657    0.8588    3.2518 H   0  0  0  0  0  0  0  0  0  0  0  0
    0.9080    0.7725    2.2340 H   0  0  0  0  0  0  0  0  0  0  0  0
    0.0115   -0.7191    2.6317 H   0  0  0  0  0  0  0  0  0  0  0  0
   -3.7319   -1.5615    1.0181 H   0  0  0  0  0  0  0  0  0  0  0  0
   -4.7417   -0.3756    0.1354 H   0  0  0  0  0  0  0  0  0  0  0  0
   -3.8431    0.1204    1.6022 H   0  0  0  0  0  0  0  0  0  0  0  0
  1  2  1  0  0  0  0
  2  3  1  0  0  0  0
  3  4  4  0  0  0  0
  4  5  2  0  0  0  0
  4  6  1  0  0  0  0
  6  7  1  0  0  0  0
  7  8  1  0  0  0  0
  7  9  1  0  0  0  0
  9 10  2  0  0  0  0
  9 11  4  0  0  0  0
 11 12  1  0  0  0  0
 12 13  1  0  0  0  0
  7 14  1  0  0  0  0
 14 15  1  0  0  0  0
 15 16  2  0  0  0  0
 15 17  1  0  0  0  0
 17 18  1  0  0  0  0
 15 19  1  0  0  0  0
 19 20  1  0  0  0  0
  1 21  1  0  0  0  0
  1 22  1  0  0  0  0
  1 23  1  0  0  0  0
  2 24  1  0  0  0  0
  2 25  1  0  0  0  0
  6 26  1  0  0  0  0
  6 27  1  0  0  0  0
 12 28  1  0  0  0  0
 12 29  1  0  0  0  0
 13 30  1  0  0  0  0
 13 31  1  0  0  0  0
 13 32  1  0  0  0  0
 18 33  1  0  0  0  0
 18 34  1  0  0  0  0
 18 35  1  0  0  0  0
 20 36  1  0  0  0  0
 20 37  1  0  0  0  0
 20 38  1  0  0  0  0
M  END
