 xtb: 6.7.1 (edcfbbe)
          04092505213D

 41 40  0     0  0            999 V2000
    5.4688   -0.7247    0.8899 C   0  0  0  0  0  0  0  0  0  0  0  0
    4.2475   -1.5052    0.4500 C   0  0  0  0  0  0  0  0  0  0  0  0
    3.6168   -0.8780   -0.6954 O   0  0  0  0  0  0  0  0  0  0  0  0
    2.4000    0.1164   -0.5913 P   0  0  0  0  0  0  0  0  0  0  0  0
    1.8663    0.7134   -2.3755 S   0  0  0  0  0  0  0  0  0  0  0  0
    2.9321    1.1943    0.4480 O   0  0  0  0  0  0  0  0  0  0  0  0
    2.1875    2.3638    0.8384 C   0  0  0  0  0  0  0  0  0  0  0  0
    2.5541    3.5497   -0.0314 C   0  0  0  0  0  0  0  0  0  0  0  0
    0.9255   -0.9314    0.5357 S   0  0  0  0  0  0  0  0  0  0  0  0
   -0.1328   -1.4611   -0.8539 C   0  0  0  0  0  0  0  0  0  0  0  0
   -1.8165   -1.7998   -0.3217 S   0  0  0  0  0  0  0  0  0  0  0  0
   -2.4535    0.1893    0.1564 P   0  0  0  0  0  0  0  0  0  0  0  0
   -1.2757    1.6557   -0.3790 S   0  0  0  0  0  0  0  0  0  0  0  0
   -2.8247    0.1529    1.7049 O   0  0  0  0  0  0  0  0  0  0  0  0
   -1.8605    0.2393    2.7704 C   0  0  0  0  0  0  0  0  0  0  0  0
   -1.4617   -1.1371    3.2665 C   0  0  0  0  0  0  0  0  0  0  0  0
   -3.8776    0.3147   -0.4938 O   0  0  0  0  0  0  0  0  0  0  0  0
   -4.9293   -0.6714   -0.3022 C   0  0  0  0  0  0  0  0  0  0  0  0
   -5.2034   -1.3913   -1.6068 C   0  0  0  0  0  0  0  0  0  0  0  0
    5.1815    0.2651    1.2336 H   0  0  0  0  0  0  0  0  0  0  0  0
    5.9578   -1.2584    1.6989 H   0  0  0  0  0  0  0  0  0  0  0  0
    6.1609   -0.6189    0.0591 H   0  0  0  0  0  0  0  0  0  0  0  0
    3.5139   -1.5857    1.2574 H   0  0  0  0  0  0  0  0  0  0  0  0
    4.5192   -2.5011    0.0955 H   0  0  0  0  0  0  0  0  0  0  0  0
    1.1158    2.1588    0.7709 H   0  0  0  0  0  0  0  0  0  0  0  0
    2.4659    2.5314    1.8805 H   0  0  0  0  0  0  0  0  0  0  0  0
    2.2623    3.3596   -1.0624 H   0  0  0  0  0  0  0  0  0  0  0  0
    2.0263    4.4288    0.3237 H   0  0  0  0  0  0  0  0  0  0  0  0
    3.6252    3.7279    0.0047 H   0  0  0  0  0  0  0  0  0  0  0  0
    0.2486   -2.3942   -1.2620 H   0  0  0  0  0  0  0  0  0  0  0  0
   -0.1239   -0.6668   -1.6050 H   0  0  0  0  0  0  0  0  0  0  0  0
   -0.9913    0.8040    2.4186 H   0  0  0  0  0  0  0  0  0  0  0  0
   -2.3708    0.8081    3.5499 H   0  0  0  0  0  0  0  0  0  0  0  0
   -0.8347   -1.0260    4.1449 H   0  0  0  0  0  0  0  0  0  0  0  0
   -2.3473   -1.7095    3.5268 H   0  0  0  0  0  0  0  0  0  0  0  0
   -0.9017   -1.6743    2.5042 H   0  0  0  0  0  0  0  0  0  0  0  0
   -4.6292   -1.3683    0.4824 H   0  0  0  0  0  0  0  0  0  0  0  0
   -5.7965   -0.0969    0.0265 H   0  0  0  0  0  0  0  0  0  0  0  0
   -5.4346   -0.6715   -2.3870 H   0  0  0  0  0  0  0  0  0  0  0  0
   -4.3360   -1.9726   -1.9096 H   0  0  0  0  0  0  0  0  0  0  0  0
   -6.0488   -2.0584   -1.4723 H   0  0  0  0  0  0  0  0  0  0  0  0
  1  2  1  0  0  0  0
  2  3  1  0  0  0  0
  3  4  2  0  0  0  0
  4  5  2  0  0  0  0
  4  6  2  0  0  0  0
  6  7  1  0  0  0  0
  7  8  1  0  0  0  0
  4  9  1  0  0  0  0
  9 10  1  0  0  0  0
 10 11  1  0  0  0  0
 11 12  1  0  0  0  0
 12 13  2  0  0  0  0
 12 14  2  0  0  0  0
 14 15  1  0  0  0  0
 15 16  1  0  0  0  0
 12 17  2  0  0  0  0
 17 18  1  0  0  0  0
 18 19  1  0  0  0  0
  1 20  1  0  0  0  0
  1 21  1  0  0  0  0
  1 22  1  0  0  0  0
  2 23  1  0  0  0  0
  2 24  1  0  0  0  0
  7 25  1  0  0  0  0
  7 26  1  0  0  0  0
  8 27  1  0  0  0  0
  8 28  1  0  0  0  0
  8 29  1  0  0  0  0
 10 30  1  0  0  0  0
 10 31  1  0  0  0  0
 15 32  1  0  0  0  0
 15 33  1  0  0  0  0
 16 34  1  0  0  0  0
 16 35  1  0  0  0  0
 16 36  1  0  0  0  0
 18 37  1  0  0  0  0
 18 38  1  0  0  0  0
 19 39  1  0  0  0  0
 19 40  1  0  0  0  0
 19 41  1  0  0  0  0
M  END
