 xtb: 6.7.1 (edcfbbe)
          04032519423D

 20 20  0     0  0            999 V2000
    0.8563    1.3790   -0.6270 C   0  0  0  0  0  0  0  0  0  0  0  0
    1.5890    0.1621   -0.0481 C   0  0  0  0  0  0  0  0  0  0  0  0
    2.5585    0.0592   -0.5554 H   0  0  0  0  0  0  0  0  0  0  0  0
    0.7704   -1.1103   -0.3337 C   0  0  0  0  0  0  0  0  0  0  0  0
    1.2159   -1.9330    0.2447 H   0  0  0  0  0  0  0  0  0  0  0  0
   -0.6813   -0.9142    0.1458 C   0  0  0  0  0  0  0  0  0  0  0  0
   -1.3089   -1.7456   -0.1948 H   0  0  0  0  0  0  0  0  0  0  0  0
   -1.2631    0.3894   -0.4482 C   0  0  0  0  0  0  0  0  0  0  0  0
   -1.3130    0.3069   -1.5460 H   0  0  0  0  0  0  0  0  0  0  0  0
   -0.4486    1.4941   -0.0977 O   0  0  0  0  0  0  0  0  0  0  0  0
   -2.5427    0.6251    0.0034 O   0  0  0  0  0  0  0  0  0  0  0  0
   -0.7807   -0.8979    1.5470 O   0  0  0  0  0  0  0  0  0  0  0  0
    0.8412   -1.3541   -1.7157 O   0  0  0  0  0  0  0  0  0  0  0  0
    1.7552    0.2514    1.3481 O   0  0  0  0  0  0  0  0  0  0  0  0
    0.8174    1.2765   -1.7190 H   0  0  0  0  0  0  0  0  0  0  0  0
    1.3585    2.3089   -0.3583 H   0  0  0  0  0  0  0  0  0  0  0  0
   -2.5516    0.5211    0.9714 H   0  0  0  0  0  0  0  0  0  0  0  0
   -0.0526   -0.3534    1.8982 H   0  0  0  0  0  0  0  0  0  0  0  0
    0.5267   -2.2485   -1.9095 H   0  0  0  0  0  0  0  0  0  0  0  0
    2.2611    1.0472    1.5673 H   0  0  0  0  0  0  0  0  0  0  0  0
  1  2  1  0  0  0  0
  2  3  1  0  0  0  0
  2  4  1  0  0  0  0
  4  5  1  0  0  0  0
  4  6  1  0  0  0  0
  6  7  1  0  0  0  0
  6  8  1  0  0  0  0
  8  9  1  0  0  0  0
  1 10  1  0  0  0  0
  8 10  1  0  0  0  0
  8 11  1  0  0  0  0
  6 12  1  0  0  0  0
  4 13  1  0  0  0  0
  2 14  1  0  0  0  0
  1 15  1  0  0  0  0
  1 16  1  0  0  0  0
 11 17  1  0  0  0  0
 12 18  1  0  0  0  0
 13 19  1  0  0  0  0
 14 20  1  0  0  0  0
M  END
