 xtb: 6.7.1 (edcfbbe)
          04032519423D

 20 20  0     0  0            999 V2000
    0.8667    1.3812   -0.6143 C   0  0  0  0  0  0  0  0  0  0  0  0
    1.5874    0.1565   -0.0380 C   0  0  0  0  0  0  0  0  0  0  0  0
    2.5539    0.0453   -0.5499 H   0  0  0  0  0  0  0  0  0  0  0  0
    0.7603   -1.1106   -0.3259 C   0  0  0  0  0  0  0  0  0  0  0  0
    1.2004   -1.9345    0.2537 H   0  0  0  0  0  0  0  0  0  0  0  0
   -0.6943   -0.9161    0.1586 C   0  0  0  0  0  0  0  0  0  0  0  0
   -1.3276   -1.7357   -0.1966 H   0  0  0  0  0  0  0  0  0  0  0  0
   -1.2472    0.3926   -0.4470 C   0  0  0  0  0  0  0  0  0  0  0  0
   -1.2351    0.2808   -1.5548 H   0  0  0  0  0  0  0  0  0  0  0  0
   -0.4458    1.4989   -0.1026 O   0  0  0  0  0  0  0  0  0  0  0  0
   -2.5301    0.6125    0.0143 O   0  0  0  0  0  0  0  0  0  0  0  0
   -0.7814   -0.9480    1.5546 O   0  0  0  0  0  0  0  0  0  0  0  0
    0.8327   -1.3535   -1.7087 O   0  0  0  0  0  0  0  0  0  0  0  0
    1.7597    0.2452    1.3561 O   0  0  0  0  0  0  0  0  0  0  0  0
    0.8368    1.2851   -1.7076 H   0  0  0  0  0  0  0  0  0  0  0  0
    1.3691    2.3068   -0.3328 H   0  0  0  0  0  0  0  0  0  0  0  0
   -2.7445    1.5536   -0.0836 H   0  0  0  0  0  0  0  0  0  0  0  0
   -0.1584   -0.2954    1.9194 H   0  0  0  0  0  0  0  0  0  0  0  0
    0.5225   -2.2495   -1.9013 H   0  0  0  0  0  0  0  0  0  0  0  0
    2.3058    1.0155    1.5699 H   0  0  0  0  0  0  0  0  0  0  0  0
  1  2  1  0  0  0  0
  2  3  1  0  0  0  0
  2  4  1  0  0  0  0
  4  5  1  0  0  0  0
  4  6  1  0  0  0  0
  6  7  1  0  0  0  0
  6  8  1  0  0  0  0
  8  9  1  0  0  0  0
  1 10  1  0  0  0  0
  8 10  1  0  0  0  0
  8 11  1  0  0  0  0
  6 12  1  0  0  0  0
  4 13  1  0  0  0  0
  2 14  1  0  0  0  0
  1 15  1  0  0  0  0
  1 16  1  0  0  0  0
 11 17  1  0  0  0  0
 12 18  1  0  0  0  0
 13 19  1  0  0  0  0
 14 20  1  0  0  0  0
M  END
