 xtb: 6.7.1 (edcfbbe)
          04092505213D

 41 40  0     0  0            999 V2000
    5.3853   -0.2621   -0.9772 C   0  0  0  0  0  0  0  0  0  0  0  0
    4.0283    0.2874   -1.3642 C   0  0  0  0  0  0  0  0  0  0  0  0
    3.2832    0.6892   -0.1840 O   0  0  0  0  0  0  0  0  0  0  0  0
    2.2415   -0.2386    0.5435 P   0  0  0  0  0  0  0  0  0  0  0  0
    1.6222    0.5262    2.2345 S   0  0  0  0  0  0  0  0  0  0  0  0
    2.9910   -1.6312    0.6732 O   0  0  0  0  0  0  0  0  0  0  0  0
    2.3782   -2.7408    1.3628 C   0  0  0  0  0  0  0  0  0  0  0  0
    3.4704   -3.7282    1.7205 C   0  0  0  0  0  0  0  0  0  0  0  0
    0.7642   -0.6955   -0.9370 S   0  0  0  0  0  0  0  0  0  0  0  0
    0.1845    0.9909   -1.2638 C   0  0  0  0  0  0  0  0  0  0  0  0
   -0.8523    1.6950    0.0506 S   0  0  0  0  0  0  0  0  0  0  0  0
   -2.6253    0.5556   -0.2865 P   0  0  0  0  0  0  0  0  0  0  0  0
   -2.7261   -0.3772   -2.0121 S   0  0  0  0  0  0  0  0  0  0  0  0
   -3.8182    1.5554   -0.0095 O   0  0  0  0  0  0  0  0  0  0  0  0
   -4.4341    2.3110   -1.0667 C   0  0  0  0  0  0  0  0  0  0  0  0
   -3.5286    3.4146   -1.5769 C   0  0  0  0  0  0  0  0  0  0  0  0
   -2.8398   -0.2814    1.0411 O   0  0  0  0  0  0  0  0  0  0  0  0
   -1.8982   -1.1978    1.6192 C   0  0  0  0  0  0  0  0  0  0  0  0
   -1.8585   -2.5189    0.8753 C   0  0  0  0  0  0  0  0  0  0  0  0
    5.9469   -0.4867   -1.8787 H   0  0  0  0  0  0  0  0  0  0  0  0
    5.9298    0.4710   -0.3884 H   0  0  0  0  0  0  0  0  0  0  0  0
    5.2710   -1.1686   -0.3894 H   0  0  0  0  0  0  0  0  0  0  0  0
    3.4449   -0.4522   -1.9190 H   0  0  0  0  0  0  0  0  0  0  0  0
    4.1241    1.2035   -1.9500 H   0  0  0  0  0  0  0  0  0  0  0  0
    1.8735   -2.3590    2.2565 H   0  0  0  0  0  0  0  0  0  0  0  0
    1.6383   -3.1869    0.6928 H   0  0  0  0  0  0  0  0  0  0  0  0
    3.9696   -4.0747    0.8204 H   0  0  0  0  0  0  0  0  0  0  0  0
    4.2009   -3.2568    2.3719 H   0  0  0  0  0  0  0  0  0  0  0  0
    3.0287   -4.5757    2.2340 H   0  0  0  0  0  0  0  0  0  0  0  0
   -0.3946    0.9227   -2.1847 H   0  0  0  0  0  0  0  0  0  0  0  0
    1.0344    1.6604   -1.3708 H   0  0  0  0  0  0  0  0  0  0  0  0
   -4.7009    1.6250   -1.8776 H   0  0  0  0  0  0  0  0  0  0  0  0
   -5.3391    2.7123   -0.6088 H   0  0  0  0  0  0  0  0  0  0  0  0
   -3.1771    4.0259   -0.7494 H   0  0  0  0  0  0  0  0  0  0  0  0
   -2.6679    2.9838   -2.0865 H   0  0  0  0  0  0  0  0  0  0  0  0
   -4.0782    4.0356   -2.2770 H   0  0  0  0  0  0  0  0  0  0  0  0
   -0.9081   -0.7282    1.6552 H   0  0  0  0  0  0  0  0  0  0  0  0
   -2.2587   -1.3302    2.6412 H   0  0  0  0  0  0  0  0  0  0  0  0
   -1.2159   -3.2103    1.4114 H   0  0  0  0  0  0  0  0  0  0  0  0
   -2.8601   -2.9354    0.8087 H   0  0  0  0  0  0  0  0  0  0  0  0
   -1.4720   -2.3809   -0.1329 H   0  0  0  0  0  0  0  0  0  0  0  0
  1  2  1  0  0  0  0
  2  3  1  0  0  0  0
  3  4  2  0  0  0  0
  4  5  2  0  0  0  0
  4  6  2  0  0  0  0
  6  7  1  0  0  0  0
  7  8  1  0  0  0  0
  4  9  1  0  0  0  0
  9 10  1  0  0  0  0
 10 11  1  0  0  0  0
 11 12  1  0  0  0  0
 12 13  2  0  0  0  0
 12 14  2  0  0  0  0
 14 15  1  0  0  0  0
 15 16  1  0  0  0  0
 12 17  2  0  0  0  0
 17 18  1  0  0  0  0
 18 19  1  0  0  0  0
  1 20  1  0  0  0  0
  1 21  1  0  0  0  0
  1 22  1  0  0  0  0
  2 23  1  0  0  0  0
  2 24  1  0  0  0  0
  7 25  1  0  0  0  0
  7 26  1  0  0  0  0
  8 27  1  0  0  0  0
  8 28  1  0  0  0  0
  8 29  1  0  0  0  0
 10 30  1  0  0  0  0
 10 31  1  0  0  0  0
 15 32  1  0  0  0  0
 15 33  1  0  0  0  0
 16 34  1  0  0  0  0
 16 35  1  0  0  0  0
 16 36  1  0  0  0  0
 18 37  1  0  0  0  0
 18 38  1  0  0  0  0
 19 39  1  0  0  0  0
 19 40  1  0  0  0  0
 19 41  1  0  0  0  0
M  END
