 xtb: 6.7.1 (edcfbbe)
          04092507313D

 38 37  0     0  0            999 V2000
    2.3105   -3.6099   -0.3654 C   0  0  0  0  0  0  0  0  0  0  0  0
    2.9746   -2.2806   -0.0447 C   0  0  0  0  0  0  0  0  0  0  0  0
    2.1914   -1.1815   -0.5476 O   0  0  0  0  0  0  0  0  0  0  0  0
    2.3272   -0.8465   -1.8223 C   0  0  0  0  0  0  0  0  0  0  0  0
    3.1206   -1.3591   -2.5777 O   0  0  0  0  0  0  0  0  0  0  0  0
    1.3925    0.2730   -2.2298 C   0  0  0  0  0  0  0  0  0  0  0  0
    0.3447    0.6037   -1.1777 C   0  0  0  0  0  0  0  0  0  0  0  0
   -0.2443    1.4723   -1.4931 H   0  0  0  0  0  0  0  0  0  0  0  0
    0.9469    0.9316    0.1748 C   0  0  0  0  0  0  0  0  0  0  0  0
    0.4793    0.5124    1.2142 O   0  0  0  0  0  0  0  0  0  0  0  0
    1.9759    1.7297    0.0758 O   0  0  0  0  0  0  0  0  0  0  0  0
    2.5734    2.2235    1.2936 C   0  0  0  0  0  0  0  0  0  0  0  0
    1.8550    3.4770    1.7649 C   0  0  0  0  0  0  0  0  0  0  0  0
   -0.8231   -0.7792   -0.9338 S   0  0  0  0  0  0  0  0  0  0  0  0
   -2.0391    0.1130    0.5613 P   0  0  0  0  0  0  0  0  0  0  0  0
   -2.1346    2.0680    0.5966 S   0  0  0  0  0  0  0  0  0  0  0  0
   -3.4580   -0.5539    0.1875 O   0  0  0  0  0  0  0  0  0  0  0  0
   -4.1588   -0.1967   -1.0058 C   0  0  0  0  0  0  0  0  0  0  0  0
   -1.8458   -0.5640    1.9756 O   0  0  0  0  0  0  0  0  0  0  0  0
   -1.5268   -1.9579    2.1317 C   0  0  0  0  0  0  0  0  0  0  0  0
    1.2883   -3.6178    0.0044 H   0  0  0  0  0  0  0  0  0  0  0  0
    2.2958   -3.7681   -1.4410 H   0  0  0  0  0  0  0  0  0  0  0  0
    2.8695   -4.4125    0.1038 H   0  0  0  0  0  0  0  0  0  0  0  0
    3.9725   -2.2272   -0.4890 H   0  0  0  0  0  0  0  0  0  0  0  0
    3.0269   -2.1085    1.0310 H   0  0  0  0  0  0  0  0  0  0  0  0
    0.9136   -0.0161   -3.1666 H   0  0  0  0  0  0  0  0  0  0  0  0
    2.0018    1.1593   -2.4224 H   0  0  0  0  0  0  0  0  0  0  0  0
    2.5233    1.4372    2.0513 H   0  0  0  0  0  0  0  0  0  0  0  0
    3.6085    2.4317    1.0229 H   0  0  0  0  0  0  0  0  0  0  0  0
    1.8922    4.2438    0.9963 H   0  0  0  0  0  0  0  0  0  0  0  0
    0.8117    3.2530    1.9821 H   0  0  0  0  0  0  0  0  0  0  0  0
    2.3304    3.8479    2.6667 H   0  0  0  0  0  0  0  0  0  0  0  0
   -4.2111    0.8897   -1.0975 H   0  0  0  0  0  0  0  0  0  0  0  0
   -5.1557   -0.6161   -0.8980 H   0  0  0  0  0  0  0  0  0  0  0  0
   -3.6541   -0.6204   -1.8741 H   0  0  0  0  0  0  0  0  0  0  0  0
   -1.6630   -2.1636    3.1903 H   0  0  0  0  0  0  0  0  0  0  0  0
   -0.4888   -2.1213    1.8413 H   0  0  0  0  0  0  0  0  0  0  0  0
   -2.1940   -2.5711    1.5276 H   0  0  0  0  0  0  0  0  0  0  0  0
  1  2  1  0  0  0  0
  2  3  1  0  0  0  0
  3  4  1  0  0  0  0
  4  5  2  0  0  0  0
  4  6  1  0  0  0  0
  6  7  1  0  0  0  0
  7  8  1  0  0  0  0
  7  9  1  0  0  0  0
  9 10  2  0  0  0  0
  9 11  4  0  0  0  0
 11 12  1  0  0  0  0
 12 13  1  0  0  0  0
  7 14  1  0  0  0  0
 14 15  1  0  0  0  0
 15 16  2  0  0  0  0
 15 17  1  0  0  0  0
 17 18  1  0  0  0  0
 15 19  2  0  0  0  0
 19 20  1  0  0  0  0
  1 21  1  0  0  0  0
  1 22  1  0  0  0  0
  1 23  1  0  0  0  0
  2 24  1  0  0  0  0
  2 25  1  0  0  0  0
  6 26  1  0  0  0  0
  6 27  1  0  0  0  0
 12 28  1  0  0  0  0
 12 29  1  0  0  0  0
 13 30  1  0  0  0  0
 13 31  1  0  0  0  0
 13 32  1  0  0  0  0
 18 33  1  0  0  0  0
 18 34  1  0  0  0  0
 18 35  1  0  0  0  0
 20 36  1  0  0  0  0
 20 37  1  0  0  0  0
 20 38  1  0  0  0  0
M  END
