 xtb: 6.7.1 (edcfbbe)
          04092505203D

 41 40  0     0  0            999 V2000
    5.7608   -0.9985   -0.3987 C   0  0  0  0  0  0  0  0  0  0  0  0
    4.9361   -0.3590   -1.4961 C   0  0  0  0  0  0  0  0  0  0  0  0
    3.5431   -0.7271   -1.4154 O   0  0  0  0  0  0  0  0  0  0  0  0
    2.6076   -0.2463   -0.2323 P   0  0  0  0  0  0  0  0  0  0  0  0
    2.9397    1.5692    0.4385 S   0  0  0  0  0  0  0  0  0  0  0  0
    2.8177   -1.4034    0.8396 O   0  0  0  0  0  0  0  0  0  0  0  0
    2.4450   -1.2648    2.2200 C   0  0  0  0  0  0  0  0  0  0  0  0
    0.9601   -1.4833    2.4268 C   0  0  0  0  0  0  0  0  0  0  0  0
    0.7483   -0.6469   -1.1662 S   0  0  0  0  0  0  0  0  0  0  0  0
    0.0817    1.0438   -1.1871 C   0  0  0  0  0  0  0  0  0  0  0  0
   -0.7898    1.4911    0.3390 S   0  0  0  0  0  0  0  0  0  0  0  0
   -2.4768    0.2663   -0.0004 P   0  0  0  0  0  0  0  0  0  0  0  0
   -3.1344    0.1476   -1.8482 S   0  0  0  0  0  0  0  0  0  0  0  0
   -3.5455    0.7484    1.0710 O   0  0  0  0  0  0  0  0  0  0  0  0
   -4.5068    1.7815    0.7937 C   0  0  0  0  0  0  0  0  0  0  0  0
   -3.8550    3.1399    0.6330 C   0  0  0  0  0  0  0  0  0  0  0  0
   -1.9575   -1.0837    0.6427 O   0  0  0  0  0  0  0  0  0  0  0  0
   -2.5228   -2.3646    0.3005 C   0  0  0  0  0  0  0  0  0  0  0  0
   -3.9365   -2.5112    0.8227 C   0  0  0  0  0  0  0  0  0  0  0  0
    5.4752   -0.5876    0.5684 H   0  0  0  0  0  0  0  0  0  0  0  0
    5.5996   -2.0732   -0.3865 H   0  0  0  0  0  0  0  0  0  0  0  0
    6.8121   -0.7916   -0.5731 H   0  0  0  0  0  0  0  0  0  0  0  0
    5.2382   -0.7067   -2.4848 H   0  0  0  0  0  0  0  0  0  0  0  0
    5.0075    0.7322   -1.4463 H   0  0  0  0  0  0  0  0  0  0  0  0
    3.0343   -2.0266    2.7329 H   0  0  0  0  0  0  0  0  0  0  0  0
    2.7430   -0.2688    2.5649 H   0  0  0  0  0  0  0  0  0  0  0  0
    0.7407   -1.4884    3.4895 H   0  0  0  0  0  0  0  0  0  0  0  0
    0.3872   -0.6857    1.9563 H   0  0  0  0  0  0  0  0  0  0  0  0
    0.6579   -2.4321    1.9909 H   0  0  0  0  0  0  0  0  0  0  0  0
   -0.6162    1.0929   -2.0228 H   0  0  0  0  0  0  0  0  0  0  0  0
    0.8936    1.7599   -1.3003 H   0  0  0  0  0  0  0  0  0  0  0  0
   -5.0547    1.5094   -0.1143 H   0  0  0  0  0  0  0  0  0  0  0  0
   -5.1756    1.7547    1.6549 H   0  0  0  0  0  0  0  0  0  0  0  0
   -3.2200    3.3581    1.4880 H   0  0  0  0  0  0  0  0  0  0  0  0
   -3.2438    3.1561   -0.2686 H   0  0  0  0  0  0  0  0  0  0  0  0
   -4.6242    3.9010    0.5500 H   0  0  0  0  0  0  0  0  0  0  0  0
   -2.4949   -2.4757   -0.7883 H   0  0  0  0  0  0  0  0  0  0  0  0
   -1.8435   -3.0830    0.7607 H   0  0  0  0  0  0  0  0  0  0  0  0
   -4.5937   -1.8088    0.3114 H   0  0  0  0  0  0  0  0  0  0  0  0
   -4.2872   -3.5215    0.6367 H   0  0  0  0  0  0  0  0  0  0  0  0
   -3.9648   -2.3062    1.8895 H   0  0  0  0  0  0  0  0  0  0  0  0
  1  2  1  0  0  0  0
  2  3  1  0  0  0  0
  3  4  2  0  0  0  0
  4  5  2  0  0  0  0
  4  6  2  0  0  0  0
  6  7  1  0  0  0  0
  7  8  1  0  0  0  0
  4  9  1  0  0  0  0
  9 10  1  0  0  0  0
 10 11  1  0  0  0  0
 11 12  1  0  0  0  0
 12 13  2  0  0  0  0
 12 14  2  0  0  0  0
 14 15  1  0  0  0  0
 15 16  1  0  0  0  0
 12 17  2  0  0  0  0
 17 18  1  0  0  0  0
 18 19  1  0  0  0  0
  1 20  1  0  0  0  0
  1 21  1  0  0  0  0
  1 22  1  0  0  0  0
  2 23  1  0  0  0  0
  2 24  1  0  0  0  0
  7 25  1  0  0  0  0
  7 26  1  0  0  0  0
  8 27  1  0  0  0  0
  8 28  1  0  0  0  0
  8 29  1  0  0  0  0
 10 30  1  0  0  0  0
 10 31  1  0  0  0  0
 15 32  1  0  0  0  0
 15 33  1  0  0  0  0
 16 34  1  0  0  0  0
 16 35  1  0  0  0  0
 16 36  1  0  0  0  0
 18 37  1  0  0  0  0
 18 38  1  0  0  0  0
 19 39  1  0  0  0  0
 19 40  1  0  0  0  0
 19 41  1  0  0  0  0
M  END
