 xtb: 6.7.1 (edcfbbe)
          04092505213D

 41 40  0     0  0            999 V2000
    5.4790   -1.2844   -1.5743 C   0  0  0  0  0  0  0  0  0  0  0  0
    4.0484   -1.5852   -1.9775 C   0  0  0  0  0  0  0  0  0  0  0  0
    3.2076   -1.7327   -0.8142 O   0  0  0  0  0  0  0  0  0  0  0  0
    2.3437   -0.5336   -0.2270 P   0  0  0  0  0  0  0  0  0  0  0  0
    3.3167    1.1307    0.1495 S   0  0  0  0  0  0  0  0  0  0  0  0
    1.6678   -1.2510    1.0118 O   0  0  0  0  0  0  0  0  0  0  0  0
    2.2362   -1.2071    2.3427 C   0  0  0  0  0  0  0  0  0  0  0  0
    1.4754   -0.2239    3.2094 C   0  0  0  0  0  0  0  0  0  0  0  0
    0.7323   -0.3987   -1.5811 S   0  0  0  0  0  0  0  0  0  0  0  0
    0.1625    1.2484   -1.0737 C   0  0  0  0  0  0  0  0  0  0  0  0
   -0.5350    1.2698    0.5955 S   0  0  0  0  0  0  0  0  0  0  0  0
   -2.4698    0.4733    0.1629 P   0  0  0  0  0  0  0  0  0  0  0  0
   -3.0204    0.6317   -1.7177 S   0  0  0  0  0  0  0  0  0  0  0  0
   -3.4153    1.2045    1.1947 O   0  0  0  0  0  0  0  0  0  0  0  0
   -3.9657    2.5100    0.9299 C   0  0  0  0  0  0  0  0  0  0  0  0
   -5.3469    2.5766    1.5510 C   0  0  0  0  0  0  0  0  0  0  0  0
   -2.5544   -0.9340    0.8771 O   0  0  0  0  0  0  0  0  0  0  0  0
   -1.7229   -2.0752    0.6072 C   0  0  0  0  0  0  0  0  0  0  0  0
   -2.0301   -2.7118   -0.7339 C   0  0  0  0  0  0  0  0  0  0  0  0
    5.8513   -2.0611   -0.9123 H   0  0  0  0  0  0  0  0  0  0  0  0
    6.0994   -1.2421   -2.4637 H   0  0  0  0  0  0  0  0  0  0  0  0
    5.5327   -0.3277   -1.0593 H   0  0  0  0  0  0  0  0  0  0  0  0
    3.9731   -2.5438   -2.4942 H   0  0  0  0  0  0  0  0  0  0  0  0
    3.6461   -0.7948   -2.6173 H   0  0  0  0  0  0  0  0  0  0  0  0
    2.1478   -2.2277    2.7178 H   0  0  0  0  0  0  0  0  0  0  0  0
    3.2912   -0.9291    2.2743 H   0  0  0  0  0  0  0  0  0  0  0  0
    1.8682   -0.2612    4.2203 H   0  0  0  0  0  0  0  0  0  0  0  0
    1.5887    0.7858    2.8197 H   0  0  0  0  0  0  0  0  0  0  0  0
    0.4173   -0.4713    3.2243 H   0  0  0  0  0  0  0  0  0  0  0  0
   -0.6010    1.5462   -1.7933 H   0  0  0  0  0  0  0  0  0  0  0  0
    1.0068    1.9369   -1.0688 H   0  0  0  0  0  0  0  0  0  0  0  0
   -3.2939    3.2496    1.3729 H   0  0  0  0  0  0  0  0  0  0  0  0
   -4.0124    2.6655   -0.1541 H   0  0  0  0  0  0  0  0  0  0  0  0
   -5.9985    1.8392    1.0903 H   0  0  0  0  0  0  0  0  0  0  0  0
   -5.2836    2.3731    2.6159 H   0  0  0  0  0  0  0  0  0  0  0  0
   -5.7606    3.5676    1.3959 H   0  0  0  0  0  0  0  0  0  0  0  0
   -0.6707   -1.7804    0.6672 H   0  0  0  0  0  0  0  0  0  0  0  0
   -1.9540   -2.7569    1.4284 H   0  0  0  0  0  0  0  0  0  0  0  0
   -1.7659   -2.0391   -1.5479 H   0  0  0  0  0  0  0  0  0  0  0  0
   -1.4525   -3.6250   -0.8354 H   0  0  0  0  0  0  0  0  0  0  0  0
   -3.0896   -2.9444   -0.8044 H   0  0  0  0  0  0  0  0  0  0  0  0
  1  2  1  0  0  0  0
  2  3  1  0  0  0  0
  3  4  2  0  0  0  0
  4  5  2  0  0  0  0
  4  6  2  0  0  0  0
  6  7  1  0  0  0  0
  7  8  1  0  0  0  0
  4  9  1  0  0  0  0
  9 10  1  0  0  0  0
 10 11  1  0  0  0  0
 11 12  1  0  0  0  0
 12 13  2  0  0  0  0
 12 14  2  0  0  0  0
 14 15  1  0  0  0  0
 15 16  1  0  0  0  0
 12 17  2  0  0  0  0
 17 18  1  0  0  0  0
 18 19  1  0  0  0  0
  1 20  1  0  0  0  0
  1 21  1  0  0  0  0
  1 22  1  0  0  0  0
  2 23  1  0  0  0  0
  2 24  1  0  0  0  0
  7 25  1  0  0  0  0
  7 26  1  0  0  0  0
  8 27  1  0  0  0  0
  8 28  1  0  0  0  0
  8 29  1  0  0  0  0
 10 30  1  0  0  0  0
 10 31  1  0  0  0  0
 15 32  1  0  0  0  0
 15 33  1  0  0  0  0
 16 34  1  0  0  0  0
 16 35  1  0  0  0  0
 16 36  1  0  0  0  0
 18 37  1  0  0  0  0
 18 38  1  0  0  0  0
 19 39  1  0  0  0  0
 19 40  1  0  0  0  0
 19 41  1  0  0  0  0
M  END
