 xtb: 6.7.1 (edcfbbe)
          04092505213D

 41 40  0     0  0            999 V2000
    1.5630   -1.2090   -2.5997 C   0  0  0  0  0  0  0  0  0  0  0  0
    2.8610   -0.4606   -2.3820 C   0  0  0  0  0  0  0  0  0  0  0  0
    2.8357    0.3736   -1.1978 O   0  0  0  0  0  0  0  0  0  0  0  0
    2.7390   -0.1146    0.2987 P   0  0  0  0  0  0  0  0  0  0  0  0
    3.4076    1.3150    1.4592 S   0  0  0  0  0  0  0  0  0  0  0  0
    3.5158   -1.4970    0.2476 O   0  0  0  0  0  0  0  0  0  0  0  0
    3.4398   -2.5264    1.2528 C   0  0  0  0  0  0  0  0  0  0  0  0
    3.7831   -2.0200    2.6375 C   0  0  0  0  0  0  0  0  0  0  0  0
    0.7226   -0.6767    0.7119 S   0  0  0  0  0  0  0  0  0  0  0  0
    0.1407    1.0237    1.0024 C   0  0  0  0  0  0  0  0  0  0  0  0
   -1.5573    1.0348    1.5947 S   0  0  0  0  0  0  0  0  0  0  0  0
   -2.4229    0.3610   -0.2177 P   0  0  0  0  0  0  0  0  0  0  0  0
   -1.5692    0.9780   -1.8779 S   0  0  0  0  0  0  0  0  0  0  0  0
   -3.9702    0.6656   -0.0392 O   0  0  0  0  0  0  0  0  0  0  0  0
   -4.5415    1.9208    0.3719 C   0  0  0  0  0  0  0  0  0  0  0  0
   -4.0444    3.0923   -0.4499 C   0  0  0  0  0  0  0  0  0  0  0  0
   -2.4025   -1.2080   -0.0193 O   0  0  0  0  0  0  0  0  0  0  0  0
   -2.3457   -2.1377   -1.1187 C   0  0  0  0  0  0  0  0  0  0  0  0
   -3.6768   -2.2104   -1.8369 C   0  0  0  0  0  0  0  0  0  0  0  0
    1.6089   -1.7238   -3.5543 H   0  0  0  0  0  0  0  0  0  0  0  0
    1.4055   -1.9403   -1.8093 H   0  0  0  0  0  0  0  0  0  0  0  0
    0.7249   -0.5143   -2.6148 H   0  0  0  0  0  0  0  0  0  0  0  0
    3.0461    0.2558   -3.1838 H   0  0  0  0  0  0  0  0  0  0  0  0
    3.7026   -1.1498   -2.2942 H   0  0  0  0  0  0  0  0  0  0  0  0
    2.4304   -2.9465    1.2345 H   0  0  0  0  0  0  0  0  0  0  0  0
    4.1599   -3.2713    0.9096 H   0  0  0  0  0  0  0  0  0  0  0  0
    3.0415   -1.2937    2.9671 H   0  0  0  0  0  0  0  0  0  0  0  0
    3.7965   -2.8527    3.3332 H   0  0  0  0  0  0  0  0  0  0  0  0
    4.7570   -1.5362    2.6345 H   0  0  0  0  0  0  0  0  0  0  0  0
    0.1967    1.5772    0.0622 H   0  0  0  0  0  0  0  0  0  0  0  0
    0.7637    1.4881    1.7669 H   0  0  0  0  0  0  0  0  0  0  0  0
   -5.6145    1.7689    0.2411 H   0  0  0  0  0  0  0  0  0  0  0  0
   -4.3133    2.0666    1.4314 H   0  0  0  0  0  0  0  0  0  0  0  0
   -4.2081    2.9109   -1.5098 H   0  0  0  0  0  0  0  0  0  0  0  0
   -4.5750    3.9916   -0.1541 H   0  0  0  0  0  0  0  0  0  0  0  0
   -2.9778    3.2422   -0.2849 H   0  0  0  0  0  0  0  0  0  0  0  0
   -1.5518   -1.8245   -1.8041 H   0  0  0  0  0  0  0  0  0  0  0  0
   -2.0789   -3.0849   -0.6492 H   0  0  0  0  0  0  0  0  0  0  0  0
   -3.6245   -2.9539   -2.6257 H   0  0  0  0  0  0  0  0  0  0  0  0
   -4.4666   -2.4736   -1.1388 H   0  0  0  0  0  0  0  0  0  0  0  0
   -3.9073   -1.2397   -2.2754 H   0  0  0  0  0  0  0  0  0  0  0  0
  1  2  1  0  0  0  0
  2  3  1  0  0  0  0
  3  4  2  0  0  0  0
  4  5  2  0  0  0  0
  4  6  2  0  0  0  0
  6  7  1  0  0  0  0
  7  8  1  0  0  0  0
  4  9  1  0  0  0  0
  9 10  1  0  0  0  0
 10 11  1  0  0  0  0
 11 12  1  0  0  0  0
 12 13  2  0  0  0  0
 12 14  2  0  0  0  0
 14 15  1  0  0  0  0
 15 16  1  0  0  0  0
 12 17  2  0  0  0  0
 17 18  1  0  0  0  0
 18 19  1  0  0  0  0
  1 20  1  0  0  0  0
  1 21  1  0  0  0  0
  1 22  1  0  0  0  0
  2 23  1  0  0  0  0
  2 24  1  0  0  0  0
  7 25  1  0  0  0  0
  7 26  1  0  0  0  0
  8 27  1  0  0  0  0
  8 28  1  0  0  0  0
  8 29  1  0  0  0  0
 10 30  1  0  0  0  0
 10 31  1  0  0  0  0
 15 32  1  0  0  0  0
 15 33  1  0  0  0  0
 16 34  1  0  0  0  0
 16 35  1  0  0  0  0
 16 36  1  0  0  0  0
 18 37  1  0  0  0  0
 18 38  1  0  0  0  0
 19 39  1  0  0  0  0
 19 40  1  0  0  0  0
 19 41  1  0  0  0  0
M  END
