 xtb: 6.7.1 (edcfbbe)
          04092505203D

 41 40  0     0  0            999 V2000
    2.5266   -0.8793   -2.9170 C   0  0  0  0  0  0  0  0  0  0  0  0
    3.1493    0.1902   -2.0412 C   0  0  0  0  0  0  0  0  0  0  0  0
    2.2174    0.6584   -1.0344 O   0  0  0  0  0  0  0  0  0  0  0  0
    2.1057    0.1350    0.4461 P   0  0  0  0  0  0  0  0  0  0  0  0
    0.9325    1.3356    1.4542 S   0  0  0  0  0  0  0  0  0  0  0  0
    3.6295    0.0886    0.8945 O   0  0  0  0  0  0  0  0  0  0  0  0
    4.1482   -0.6807    1.9968 C   0  0  0  0  0  0  0  0  0  0  0  0
    3.4202   -0.4104    3.2962 C   0  0  0  0  0  0  0  0  0  0  0  0
    1.6005   -1.9326    0.4169 S   0  0  0  0  0  0  0  0  0  0  0  0
   -0.0220   -1.8661   -0.3805 C   0  0  0  0  0  0  0  0  0  0  0  0
   -1.3580   -1.2230    0.6729 S   0  0  0  0  0  0  0  0  0  0  0  0
   -1.9686    0.4521   -0.4997 P   0  0  0  0  0  0  0  0  0  0  0  0
   -0.9375    0.7956   -2.1241 S   0  0  0  0  0  0  0  0  0  0  0  0
   -1.9917    1.7281    0.4145 O   0  0  0  0  0  0  0  0  0  0  0  0
   -2.6049    1.7652    1.7258 C   0  0  0  0  0  0  0  0  0  0  0  0
   -3.9218    2.5104    1.6680 C   0  0  0  0  0  0  0  0  0  0  0  0
   -3.5333    0.1921   -0.6784 O   0  0  0  0  0  0  0  0  0  0  0  0
   -4.1347   -1.0306   -1.1403 C   0  0  0  0  0  0  0  0  0  0  0  0
   -3.6619   -1.4353   -2.5212 C   0  0  0  0  0  0  0  0  0  0  0  0
    2.3916   -1.8062   -2.3648 H   0  0  0  0  0  0  0  0  0  0  0  0
    1.5625   -0.5347   -3.2861 H   0  0  0  0  0  0  0  0  0  0  0  0
    3.1822   -1.0656   -3.7617 H   0  0  0  0  0  0  0  0  0  0  0  0
    3.3726    1.0881   -2.6196 H   0  0  0  0  0  0  0  0  0  0  0  0
    4.0545   -0.1665   -1.5465 H   0  0  0  0  0  0  0  0  0  0  0  0
    4.0854   -1.7396    1.7312 H   0  0  0  0  0  0  0  0  0  0  0  0
    5.1936   -0.3720    2.0530 H   0  0  0  0  0  0  0  0  0  0  0  0
    3.8990   -0.9616    4.0990 H   0  0  0  0  0  0  0  0  0  0  0  0
    3.4364    0.6524    3.5265 H   0  0  0  0  0  0  0  0  0  0  0  0
    2.3809   -0.7270    3.2175 H   0  0  0  0  0  0  0  0  0  0  0  0
   -0.2610   -2.8989   -0.6216 H   0  0  0  0  0  0  0  0  0  0  0  0
    0.0318   -1.2421   -1.2783 H   0  0  0  0  0  0  0  0  0  0  0  0
   -2.7399    0.7416    2.0870 H   0  0  0  0  0  0  0  0  0  0  0  0
   -1.8726    2.2740    2.3568 H   0  0  0  0  0  0  0  0  0  0  0  0
   -4.6188    1.9902    1.0159 H   0  0  0  0  0  0  0  0  0  0  0  0
   -4.3381    2.5714    2.6684 H   0  0  0  0  0  0  0  0  0  0  0  0
   -3.7624    3.5134    1.2819 H   0  0  0  0  0  0  0  0  0  0  0  0
   -3.9187   -1.8156   -0.4096 H   0  0  0  0  0  0  0  0  0  0  0  0
   -5.2028   -0.8063   -1.1368 H   0  0  0  0  0  0  0  0  0  0  0  0
   -2.5994   -1.6721   -2.5035 H   0  0  0  0  0  0  0  0  0  0  0  0
   -4.2164   -2.3088   -2.8485 H   0  0  0  0  0  0  0  0  0  0  0  0
   -3.8173   -0.6232   -3.2273 H   0  0  0  0  0  0  0  0  0  0  0  0
  1  2  1  0  0  0  0
  2  3  1  0  0  0  0
  3  4  2  0  0  0  0
  4  5  2  0  0  0  0
  4  6  2  0  0  0  0
  6  7  1  0  0  0  0
  7  8  1  0  0  0  0
  4  9  1  0  0  0  0
  9 10  1  0  0  0  0
 10 11  1  0  0  0  0
 11 12  1  0  0  0  0
 12 13  2  0  0  0  0
 12 14  2  0  0  0  0
 14 15  1  0  0  0  0
 15 16  1  0  0  0  0
 12 17  2  0  0  0  0
 17 18  1  0  0  0  0
 18 19  1  0  0  0  0
  1 20  1  0  0  0  0
  1 21  1  0  0  0  0
  1 22  1  0  0  0  0
  2 23  1  0  0  0  0
  2 24  1  0  0  0  0
  7 25  1  0  0  0  0
  7 26  1  0  0  0  0
  8 27  1  0  0  0  0
  8 28  1  0  0  0  0
  8 29  1  0  0  0  0
 10 30  1  0  0  0  0
 10 31  1  0  0  0  0
 15 32  1  0  0  0  0
 15 33  1  0  0  0  0
 16 34  1  0  0  0  0
 16 35  1  0  0  0  0
 16 36  1  0  0  0  0
 18 37  1  0  0  0  0
 18 38  1  0  0  0  0
 19 39  1  0  0  0  0
 19 40  1  0  0  0  0
 19 41  1  0  0  0  0
M  END
