 xtb: 6.7.1 (edcfbbe)
          04092507313D

 38 37  0     0  0            999 V2000
    1.1335   -3.9085   -1.9719 C   0  0  0  0  0  0  0  0  0  0  0  0
    2.0710   -3.6516   -0.8024 C   0  0  0  0  0  0  0  0  0  0  0  0
    1.8310   -2.3534   -0.2238 O   0  0  0  0  0  0  0  0  0  0  0  0
    2.4050   -1.3054   -0.7811 C   0  0  0  0  0  0  0  0  0  0  0  0
    3.1640   -1.3526   -1.7223 O   0  0  0  0  0  0  0  0  0  0  0  0
    1.9651   -0.0155   -0.1145 C   0  0  0  0  0  0  0  0  0  0  0  0
    0.8608    0.6143   -0.9625 C   0  0  0  0  0  0  0  0  0  0  0  0
    1.2338    0.7938   -1.9770 H   0  0  0  0  0  0  0  0  0  0  0  0
    0.3461    1.9353   -0.4147 C   0  0  0  0  0  0  0  0  0  0  0  0
   -0.8217    2.2628   -0.5013 O   0  0  0  0  0  0  0  0  0  0  0  0
    1.2941    2.6669    0.0979 O   0  0  0  0  0  0  0  0  0  0  0  0
    0.9187    3.9361    0.6748 C   0  0  0  0  0  0  0  0  0  0  0  0
    2.1590    4.5555    1.2847 C   0  0  0  0  0  0  0  0  0  0  0  0
   -0.5716   -0.4872   -1.1888 S   0  0  0  0  0  0  0  0  0  0  0  0
   -1.6262   -0.1078    0.6215 P   0  0  0  0  0  0  0  0  0  0  0  0
   -0.6632    0.6262    2.1606 S   0  0  0  0  0  0  0  0  0  0  0  0
   -2.9570    0.6740    0.2990 O   0  0  0  0  0  0  0  0  0  0  0  0
   -3.8431    0.2970   -0.7728 C   0  0  0  0  0  0  0  0  0  0  0  0
   -2.2261   -1.5686    0.9053 O   0  0  0  0  0  0  0  0  0  0  0  0
   -1.3792   -2.6284    1.3640 C   0  0  0  0  0  0  0  0  0  0  0  0
    0.0980   -3.7980   -1.6619 H   0  0  0  0  0  0  0  0  0  0  0  0
    1.3328   -3.1999   -2.7724 H   0  0  0  0  0  0  0  0  0  0  0  0
    1.2921   -4.9155   -2.3428 H   0  0  0  0  0  0  0  0  0  0  0  0
    3.1139   -3.6980   -1.1277 H   0  0  0  0  0  0  0  0  0  0  0  0
    1.8954   -4.3514    0.0147 H   0  0  0  0  0  0  0  0  0  0  0  0
    2.8058    0.6769   -0.0732 H   0  0  0  0  0  0  0  0  0  0  0  0
    1.6007   -0.2230    0.8925 H   0  0  0  0  0  0  0  0  0  0  0  0
    0.4930    4.5597   -0.1169 H   0  0  0  0  0  0  0  0  0  0  0  0
    0.1433    3.7471    1.4243 H   0  0  0  0  0  0  0  0  0  0  0  0
    2.9194    4.6962    0.5226 H   0  0  0  0  0  0  0  0  0  0  0  0
    1.9008    5.5165    1.7166 H   0  0  0  0  0  0  0  0  0  0  0  0
    2.5518    3.9081    2.0628 H   0  0  0  0  0  0  0  0  0  0  0  0
   -3.3077    0.3238   -1.7218 H   0  0  0  0  0  0  0  0  0  0  0  0
   -4.6338    1.0424   -0.7589 H   0  0  0  0  0  0  0  0  0  0  0  0
   -4.2409   -0.6997   -0.5909 H   0  0  0  0  0  0  0  0  0  0  0  0
   -0.5726   -2.8026    0.6516 H   0  0  0  0  0  0  0  0  0  0  0  0
   -2.0216   -3.5011    1.4437 H   0  0  0  0  0  0  0  0  0  0  0  0
   -0.9569   -2.3701    2.3359 H   0  0  0  0  0  0  0  0  0  0  0  0
  1  2  1  0  0  0  0
  2  3  1  0  0  0  0
  3  4  1  0  0  0  0
  4  5  2  0  0  0  0
  4  6  1  0  0  0  0
  6  7  1  0  0  0  0
  7  8  1  0  0  0  0
  7  9  1  0  0  0  0
  9 10  2  0  0  0  0
  9 11  4  0  0  0  0
 11 12  1  0  0  0  0
 12 13  1  0  0  0  0
  7 14  1  0  0  0  0
 14 15  1  0  0  0  0
 15 16  2  0  0  0  0
 15 17  2  0  0  0  0
 17 18  1  0  0  0  0
 15 19  1  0  0  0  0
 19 20  1  0  0  0  0
  1 21  1  0  0  0  0
  1 22  1  0  0  0  0
  1 23  1  0  0  0  0
  2 24  1  0  0  0  0
  2 25  1  0  0  0  0
  6 26  1  0  0  0  0
  6 27  1  0  0  0  0
 12 28  1  0  0  0  0
 12 29  1  0  0  0  0
 13 30  1  0  0  0  0
 13 31  1  0  0  0  0
 13 32  1  0  0  0  0
 18 33  1  0  0  0  0
 18 34  1  0  0  0  0
 18 35  1  0  0  0  0
 20 36  1  0  0  0  0
 20 37  1  0  0  0  0
 20 38  1  0  0  0  0
M  END
