 xtb: 6.7.1 (edcfbbe)
          04092507313D

 38 37  0     0  0            999 V2000
    4.0132   -3.6829    0.3521 C   0  0  0  0  0  0  0  0  0  0  0  0
    2.9723   -2.6265    0.6636 C   0  0  0  0  0  0  0  0  0  0  0  0
    2.9332   -1.7030   -0.4454 O   0  0  0  0  0  0  0  0  0  0  0  0
    1.9207   -0.8872   -0.5457 C   0  0  0  0  0  0  0  0  0  0  0  0
    1.0070   -0.8473    0.2684 O   0  0  0  0  0  0  0  0  0  0  0  0
    1.9758   -0.0062   -1.7631 C   0  0  0  0  0  0  0  0  0  0  0  0
    0.8283    0.9888   -1.7448 C   0  0  0  0  0  0  0  0  0  0  0  0
    0.8074    1.5860   -2.6592 H   0  0  0  0  0  0  0  0  0  0  0  0
    0.8719    1.9274   -0.5497 C   0  0  0  0  0  0  0  0  0  0  0  0
    1.7285    1.8781    0.3070 O   0  0  0  0  0  0  0  0  0  0  0  0
   -0.1056    2.7996   -0.5987 O   0  0  0  0  0  0  0  0  0  0  0  0
   -0.2567    3.7613    0.4639 C   0  0  0  0  0  0  0  0  0  0  0  0
   -1.7343    3.9050    0.7773 C   0  0  0  0  0  0  0  0  0  0  0  0
   -0.8170    0.1617   -1.7995 S   0  0  0  0  0  0  0  0  0  0  0  0
   -1.3332   -0.4987    0.1440 P   0  0  0  0  0  0  0  0  0  0  0  0
   -1.3370   -2.3801    0.7301 S   0  0  0  0  0  0  0  0  0  0  0  0
   -0.9930    0.5852    1.2798 O   0  0  0  0  0  0  0  0  0  0  0  0
   -0.1781    0.3451    2.4241 C   0  0  0  0  0  0  0  0  0  0  0  0
   -2.8503   -0.0431   -0.1766 O   0  0  0  0  0  0  0  0  0  0  0  0
   -3.9536   -0.3994    0.6559 C   0  0  0  0  0  0  0  0  0  0  0  0
    4.0743   -4.3782    1.1825 H   0  0  0  0  0  0  0  0  0  0  0  0
    3.7383   -4.2253   -0.5474 H   0  0  0  0  0  0  0  0  0  0  0  0
    4.9815   -3.2158    0.2009 H   0  0  0  0  0  0  0  0  0  0  0  0
    3.2270   -2.0603    1.5644 H   0  0  0  0  0  0  0  0  0  0  0  0
    1.9741   -3.0571    0.7947 H   0  0  0  0  0  0  0  0  0  0  0  0
    1.9158   -0.6328   -2.6543 H   0  0  0  0  0  0  0  0  0  0  0  0
    2.9359    0.5131   -1.7668 H   0  0  0  0  0  0  0  0  0  0  0  0
    0.3143    3.4173    1.3309 H   0  0  0  0  0  0  0  0  0  0  0  0
    0.1654    4.7021    0.1006 H   0  0  0  0  0  0  0  0  0  0  0  0
   -2.1410    2.9474    1.0932 H   0  0  0  0  0  0  0  0  0  0  0  0
   -1.8653    4.6313    1.5725 H   0  0  0  0  0  0  0  0  0  0  0  0
   -2.2710    4.2338   -0.1074 H   0  0  0  0  0  0  0  0  0  0  0  0
   -0.6471    0.8799    3.2475 H   0  0  0  0  0  0  0  0  0  0  0  0
    0.8271    0.7238    2.2383 H   0  0  0  0  0  0  0  0  0  0  0  0
   -0.1347   -0.7243    2.6363 H   0  0  0  0  0  0  0  0  0  0  0  0
   -3.9776    0.2383    1.5396 H   0  0  0  0  0  0  0  0  0  0  0  0
   -3.8735   -1.4459    0.9596 H   0  0  0  0  0  0  0  0  0  0  0  0
   -4.8431   -0.2475    0.0496 H   0  0  0  0  0  0  0  0  0  0  0  0
  1  2  1  0  0  0  0
  2  3  1  0  0  0  0
  3  4  4  0  0  0  0
  4  5  2  0  0  0  0
  4  6  1  0  0  0  0
  6  7  1  0  0  0  0
  7  8  1  0  0  0  0
  7  9  1  0  0  0  0
  9 10  2  0  0  0  0
  9 11  4  0  0  0  0
 11 12  1  0  0  0  0
 12 13  1  0  0  0  0
  7 14  1  0  0  0  0
 14 15  1  0  0  0  0
 15 16  2  0  0  0  0
 15 17  1  0  0  0  0
 17 18  1  0  0  0  0
 15 19  1  0  0  0  0
 19 20  1  0  0  0  0
  1 21  1  0  0  0  0
  1 22  1  0  0  0  0
  1 23  1  0  0  0  0
  2 24  1  0  0  0  0
  2 25  1  0  0  0  0
  6 26  1  0  0  0  0
  6 27  1  0  0  0  0
 12 28  1  0  0  0  0
 12 29  1  0  0  0  0
 13 30  1  0  0  0  0
 13 31  1  0  0  0  0
 13 32  1  0  0  0  0
 18 33  1  0  0  0  0
 18 34  1  0  0  0  0
 18 35  1  0  0  0  0
 20 36  1  0  0  0  0
 20 37  1  0  0  0  0
 20 38  1  0  0  0  0
M  END
