 xtb: 6.7.1 (edcfbbe)
          04092505203D

 41 40  0     0  0            999 V2000
    4.5398   -0.5719   -2.4164 C   0  0  0  0  0  0  0  0  0  0  0  0
    3.7431   -1.7882   -1.9918 C   0  0  0  0  0  0  0  0  0  0  0  0
    3.2854   -1.7122   -0.6297 O   0  0  0  0  0  0  0  0  0  0  0  0
    2.4799   -0.5030    0.0127 P   0  0  0  0  0  0  0  0  0  0  0  0
    3.5011    1.1005    0.5134 S   0  0  0  0  0  0  0  0  0  0  0  0
    1.8108   -1.2474    1.2393 O   0  0  0  0  0  0  0  0  0  0  0  0
    2.2314   -1.0811    2.6132 C   0  0  0  0  0  0  0  0  0  0  0  0
    1.0845   -0.5585    3.4541 C   0  0  0  0  0  0  0  0  0  0  0  0
    0.8782   -0.2119   -1.3391 S   0  0  0  0  0  0  0  0  0  0  0  0
    0.2707    1.3295   -0.6041 C   0  0  0  0  0  0  0  0  0  0  0  0
   -0.8537    1.0452    0.7769 S   0  0  0  0  0  0  0  0  0  0  0  0
   -2.4963    0.3923   -0.4206 P   0  0  0  0  0  0  0  0  0  0  0  0
   -2.7732    1.4651   -2.0360 S   0  0  0  0  0  0  0  0  0  0  0  0
   -3.7211    0.3027    0.5854 O   0  0  0  0  0  0  0  0  0  0  0  0
   -4.5762    1.4267    0.8660 C   0  0  0  0  0  0  0  0  0  0  0  0
   -3.8465    2.5407    1.5873 C   0  0  0  0  0  0  0  0  0  0  0  0
   -2.2363   -1.1205   -0.7865 O   0  0  0  0  0  0  0  0  0  0  0  0
   -2.4921   -2.2689    0.0572 C   0  0  0  0  0  0  0  0  0  0  0  0
   -1.6706   -2.2526    1.3285 C   0  0  0  0  0  0  0  0  0  0  0  0
    4.9344   -0.7304   -3.4150 H   0  0  0  0  0  0  0  0  0  0  0  0
    3.9031    0.3119   -2.4242 H   0  0  0  0  0  0  0  0  0  0  0  0
    5.3631   -0.3979   -1.7274 H   0  0  0  0  0  0  0  0  0  0  0  0
    4.3563   -2.6912   -2.0058 H   0  0  0  0  0  0  0  0  0  0  0  0
    2.8702   -1.9235   -2.6368 H   0  0  0  0  0  0  0  0  0  0  0  0
    2.5543   -2.0691    2.9456 H   0  0  0  0  0  0  0  0  0  0  0  0
    3.0803   -0.3903    2.6414 H   0  0  0  0  0  0  0  0  0  0  0  0
    0.2462   -1.2473    3.4210 H   0  0  0  0  0  0  0  0  0  0  0  0
    1.4236   -0.4537    4.4797 H   0  0  0  0  0  0  0  0  0  0  0  0
    0.7579    0.4112    3.0853 H   0  0  0  0  0  0  0  0  0  0  0  0
   -0.2603    1.8691   -1.3895 H   0  0  0  0  0  0  0  0  0  0  0  0
    1.1182    1.9055   -0.2284 H   0  0  0  0  0  0  0  0  0  0  0  0
   -4.9909    1.7883   -0.0798 H   0  0  0  0  0  0  0  0  0  0  0  0
   -5.3693    0.9993    1.4813 H   0  0  0  0  0  0  0  0  0  0  0  0
   -3.3364    2.1555    2.4665 H   0  0  0  0  0  0  0  0  0  0  0  0
   -3.1109    2.9948    0.9250 H   0  0  0  0  0  0  0  0  0  0  0  0
   -4.5616    3.2995    1.8885 H   0  0  0  0  0  0  0  0  0  0  0  0
   -3.5601   -2.2944    0.2821 H   0  0  0  0  0  0  0  0  0  0  0  0
   -2.2250   -3.1102   -0.5846 H   0  0  0  0  0  0  0  0  0  0  0  0
   -1.9693   -1.4150    1.9563 H   0  0  0  0  0  0  0  0  0  0  0  0
   -1.8376   -3.1798    1.8684 H   0  0  0  0  0  0  0  0  0  0  0  0
   -0.6115   -2.1623    1.0953 H   0  0  0  0  0  0  0  0  0  0  0  0
  1  2  1  0  0  0  0
  2  3  1  0  0  0  0
  3  4  2  0  0  0  0
  4  5  2  0  0  0  0
  4  6  2  0  0  0  0
  6  7  1  0  0  0  0
  7  8  1  0  0  0  0
  4  9  1  0  0  0  0
  9 10  1  0  0  0  0
 10 11  1  0  0  0  0
 11 12  1  0  0  0  0
 12 13  2  0  0  0  0
 12 14  2  0  0  0  0
 14 15  1  0  0  0  0
 15 16  1  0  0  0  0
 12 17  2  0  0  0  0
 17 18  1  0  0  0  0
 18 19  1  0  0  0  0
  1 20  1  0  0  0  0
  1 21  1  0  0  0  0
  1 22  1  0  0  0  0
  2 23  1  0  0  0  0
  2 24  1  0  0  0  0
  7 25  1  0  0  0  0
  7 26  1  0  0  0  0
  8 27  1  0  0  0  0
  8 28  1  0  0  0  0
  8 29  1  0  0  0  0
 10 30  1  0  0  0  0
 10 31  1  0  0  0  0
 15 32  1  0  0  0  0
 15 33  1  0  0  0  0
 16 34  1  0  0  0  0
 16 35  1  0  0  0  0
 16 36  1  0  0  0  0
 18 37  1  0  0  0  0
 18 38  1  0  0  0  0
 19 39  1  0  0  0  0
 19 40  1  0  0  0  0
 19 41  1  0  0  0  0
M  END
