 xtb: 6.7.1 (edcfbbe)
          04092505203D

 41 40  0     0  0            999 V2000
    1.2679   -0.3776   -3.4317 C   0  0  0  0  0  0  0  0  0  0  0  0
    1.8638   -0.9628   -2.1693 C   0  0  0  0  0  0  0  0  0  0  0  0
    1.9629    0.1026   -1.1902 O   0  0  0  0  0  0  0  0  0  0  0  0
    2.1759   -0.1720    0.3449 P   0  0  0  0  0  0  0  0  0  0  0  0
    2.4285    1.4820    1.3563 S   0  0  0  0  0  0  0  0  0  0  0  0
    3.3970   -1.1937    0.2768 O   0  0  0  0  0  0  0  0  0  0  0  0
    3.8899   -1.9886    1.3715 C   0  0  0  0  0  0  0  0  0  0  0  0
    4.5891   -1.1567    2.4274 C   0  0  0  0  0  0  0  0  0  0  0  0
    0.6093   -1.4430    1.0286 S   0  0  0  0  0  0  0  0  0  0  0  0
   -0.3670   -0.2677    2.0187 C   0  0  0  0  0  0  0  0  0  0  0  0
   -2.1058   -0.2401    1.5474 S   0  0  0  0  0  0  0  0  0  0  0  0
   -1.8521    0.5826   -0.4025 P   0  0  0  0  0  0  0  0  0  0  0  0
   -0.5876    2.0711   -0.5589 S   0  0  0  0  0  0  0  0  0  0  0  0
   -3.3496    0.8105   -0.8776 O   0  0  0  0  0  0  0  0  0  0  0  0
   -4.3666    1.4884   -0.1163 C   0  0  0  0  0  0  0  0  0  0  0  0
   -3.9450    2.8744    0.3229 C   0  0  0  0  0  0  0  0  0  0  0  0
   -1.3905   -0.6013   -1.3362 O   0  0  0  0  0  0  0  0  0  0  0  0
   -2.1404   -1.8345   -1.4888 C   0  0  0  0  0  0  0  0  0  0  0  0
   -2.8955   -1.8298   -2.8015 C   0  0  0  0  0  0  0  0  0  0  0  0
    1.8987    0.4251   -3.8030 H   0  0  0  0  0  0  0  0  0  0  0  0
    1.1883   -1.1559   -4.1839 H   0  0  0  0  0  0  0  0  0  0  0  0
    0.2819    0.0290   -3.2204 H   0  0  0  0  0  0  0  0  0  0  0  0
    2.8691   -1.3532   -2.3387 H   0  0  0  0  0  0  0  0  0  0  0  0
    1.2308   -1.7538   -1.7558 H   0  0  0  0  0  0  0  0  0  0  0  0
    3.0529   -2.5452    1.8023 H   0  0  0  0  0  0  0  0  0  0  0  0
    4.5834   -2.6807    0.8900 H   0  0  0  0  0  0  0  0  0  0  0  0
    5.0127   -1.8157    3.1784 H   0  0  0  0  0  0  0  0  0  0  0  0
    5.3830   -0.5664    1.9769 H   0  0  0  0  0  0  0  0  0  0  0  0
    3.8865   -0.4762    2.9039 H   0  0  0  0  0  0  0  0  0  0  0  0
    0.0733    0.7274    1.9020 H   0  0  0  0  0  0  0  0  0  0  0  0
   -0.3394   -0.5901    3.0565 H   0  0  0  0  0  0  0  0  0  0  0  0
   -5.2157    1.5291   -0.8008 H   0  0  0  0  0  0  0  0  0  0  0  0
   -4.6142    0.8674    0.7490 H   0  0  0  0  0  0  0  0  0  0  0  0
   -3.6396    3.4688   -0.5352 H   0  0  0  0  0  0  0  0  0  0  0  0
   -4.7742    3.3636    0.8236 H   0  0  0  0  0  0  0  0  0  0  0  0
   -3.1023    2.8117    1.0104 H   0  0  0  0  0  0  0  0  0  0  0  0
   -1.3887   -2.6260   -1.4594 H   0  0  0  0  0  0  0  0  0  0  0  0
   -2.8195   -1.9462   -0.6393 H   0  0  0  0  0  0  0  0  0  0  0  0
   -3.4192   -2.7740   -2.9125 H   0  0  0  0  0  0  0  0  0  0  0  0
   -3.6145   -1.0149   -2.8166 H   0  0  0  0  0  0  0  0  0  0  0  0
   -2.2054   -1.7021   -3.6308 H   0  0  0  0  0  0  0  0  0  0  0  0
  1  2  1  0  0  0  0
  2  3  1  0  0  0  0
  3  4  2  0  0  0  0
  4  5  2  0  0  0  0
  4  6  2  0  0  0  0
  6  7  1  0  0  0  0
  7  8  1  0  0  0  0
  4  9  1  0  0  0  0
  9 10  1  0  0  0  0
 10 11  1  0  0  0  0
 11 12  1  0  0  0  0
 12 13  2  0  0  0  0
 12 14  2  0  0  0  0
 14 15  1  0  0  0  0
 15 16  1  0  0  0  0
 12 17  2  0  0  0  0
 17 18  1  0  0  0  0
 18 19  1  0  0  0  0
  1 20  1  0  0  0  0
  1 21  1  0  0  0  0
  1 22  1  0  0  0  0
  2 23  1  0  0  0  0
  2 24  1  0  0  0  0
  7 25  1  0  0  0  0
  7 26  1  0  0  0  0
  8 27  1  0  0  0  0
  8 28  1  0  0  0  0
  8 29  1  0  0  0  0
 10 30  1  0  0  0  0
 10 31  1  0  0  0  0
 15 32  1  0  0  0  0
 15 33  1  0  0  0  0
 16 34  1  0  0  0  0
 16 35  1  0  0  0  0
 16 36  1  0  0  0  0
 18 37  1  0  0  0  0
 18 38  1  0  0  0  0
 19 39  1  0  0  0  0
 19 40  1  0  0  0  0
 19 41  1  0  0  0  0
M  END
