 xtb: 6.7.1 (edcfbbe)
          04092505203D

 41 40  0     0  0            999 V2000
    1.3400    2.0026    2.0346 C   0  0  0  0  0  0  0  0  0  0  0  0
    2.1007    0.8564    2.6671 C   0  0  0  0  0  0  0  0  0  0  0  0
    1.9830   -0.3739    1.9125 O   0  0  0  0  0  0  0  0  0  0  0  0
    2.5401   -0.6491    0.4634 P   0  0  0  0  0  0  0  0  0  0  0  0
    2.7676   -2.5826    0.2367 S   0  0  0  0  0  0  0  0  0  0  0  0
    3.8262    0.2802    0.4306 O   0  0  0  0  0  0  0  0  0  0  0  0
    4.5333    0.6798   -0.7588 C   0  0  0  0  0  0  0  0  0  0  0  0
    4.9908   -0.4974   -1.5935 C   0  0  0  0  0  0  0  0  0  0  0  0
    1.2443    0.2421   -0.9883 S   0  0  0  0  0  0  0  0  0  0  0  0
    0.1185   -1.1579   -1.1285 C   0  0  0  0  0  0  0  0  0  0  0  0
   -0.9790   -1.3174    0.3056 S   0  0  0  0  0  0  0  0  0  0  0  0
   -2.2949    0.2467   -0.2514 P   0  0  0  0  0  0  0  0  0  0  0  0
   -2.7219    0.3421   -2.1671 S   0  0  0  0  0  0  0  0  0  0  0  0
   -1.5707    1.5185    0.3448 O   0  0  0  0  0  0  0  0  0  0  0  0
   -1.7674    2.8374   -0.2104 C   0  0  0  0  0  0  0  0  0  0  0  0
   -3.1481    3.3654    0.1143 C   0  0  0  0  0  0  0  0  0  0  0  0
   -3.5014    0.0738    0.7664 O   0  0  0  0  0  0  0  0  0  0  0  0
   -4.4386   -1.0183    0.6889 C   0  0  0  0  0  0  0  0  0  0  0  0
   -5.6357   -0.6506   -0.1669 C   0  0  0  0  0  0  0  0  0  0  0  0
    1.3829    2.8622    2.6964 H   0  0  0  0  0  0  0  0  0  0  0  0
    1.7812    2.2689    1.0758 H   0  0  0  0  0  0  0  0  0  0  0  0
    0.3007    1.7228    1.8782 H   0  0  0  0  0  0  0  0  0  0  0  0
    1.6855    0.5888    3.6401 H   0  0  0  0  0  0  0  0  0  0  0  0
    3.1611    1.0948    2.7667 H   0  0  0  0  0  0  0  0  0  0  0  0
    3.8792    1.3346   -1.3412 H   0  0  0  0  0  0  0  0  0  0  0  0
    5.3811    1.2482   -0.3721 H   0  0  0  0  0  0  0  0  0  0  0  0
    5.5790   -1.1851   -0.9906 H   0  0  0  0  0  0  0  0  0  0  0  0
    4.1306   -1.0372   -1.9867 H   0  0  0  0  0  0  0  0  0  0  0  0
    5.5928   -0.1392   -2.4223 H   0  0  0  0  0  0  0  0  0  0  0  0
    0.6994   -2.0800   -1.1849 H   0  0  0  0  0  0  0  0  0  0  0  0
   -0.4808   -1.0039   -2.0269 H   0  0  0  0  0  0  0  0  0  0  0  0
   -0.9802    3.4379    0.2466 H   0  0  0  0  0  0  0  0  0  0  0  0
   -1.6146    2.7852   -1.2929 H   0  0  0  0  0  0  0  0  0  0  0  0
   -3.3160    3.3456    1.1878 H   0  0  0  0  0  0  0  0  0  0  0  0
   -3.2418    4.3834   -0.2503 H   0  0  0  0  0  0  0  0  0  0  0  0
   -3.9002    2.7437   -0.3702 H   0  0  0  0  0  0  0  0  0  0  0  0
   -3.9301   -1.9038    0.2963 H   0  0  0  0  0  0  0  0  0  0  0  0
   -4.7315   -1.1990    1.7249 H   0  0  0  0  0  0  0  0  0  0  0  0
   -6.1158    0.2414    0.2256 H   0  0  0  0  0  0  0  0  0  0  0  0
   -5.3243   -0.4604   -1.1917 H   0  0  0  0  0  0  0  0  0  0  0  0
   -6.3449   -1.4720   -0.1606 H   0  0  0  0  0  0  0  0  0  0  0  0
  1  2  1  0  0  0  0
  2  3  1  0  0  0  0
  3  4  2  0  0  0  0
  4  5  2  0  0  0  0
  4  6  2  0  0  0  0
  6  7  1  0  0  0  0
  7  8  1  0  0  0  0
  4  9  1  0  0  0  0
  9 10  1  0  0  0  0
 10 11  1  0  0  0  0
 11 12  1  0  0  0  0
 12 13  2  0  0  0  0
 12 14  2  0  0  0  0
 14 15  1  0  0  0  0
 15 16  1  0  0  0  0
 12 17  2  0  0  0  0
 17 18  1  0  0  0  0
 18 19  1  0  0  0  0
  1 20  1  0  0  0  0
  1 21  1  0  0  0  0
  1 22  1  0  0  0  0
  2 23  1  0  0  0  0
  2 24  1  0  0  0  0
  7 25  1  0  0  0  0
  7 26  1  0  0  0  0
  8 27  1  0  0  0  0
  8 28  1  0  0  0  0
  8 29  1  0  0  0  0
 10 30  1  0  0  0  0
 10 31  1  0  0  0  0
 15 32  1  0  0  0  0
 15 33  1  0  0  0  0
 16 34  1  0  0  0  0
 16 35  1  0  0  0  0
 16 36  1  0  0  0  0
 18 37  1  0  0  0  0
 18 38  1  0  0  0  0
 19 39  1  0  0  0  0
 19 40  1  0  0  0  0
 19 41  1  0  0  0  0
M  END
