 xtb: 6.7.1 (edcfbbe)
          04092505213D

 41 40  0     0  0            999 V2000
    4.6227    1.2197   -1.6371 C   0  0  0  0  0  0  0  0  0  0  0  0
    4.7193   -0.0957   -0.8914 C   0  0  0  0  0  0  0  0  0  0  0  0
    3.4409   -0.7441   -0.7674 O   0  0  0  0  0  0  0  0  0  0  0  0
    2.2775   -0.1640    0.1441 P   0  0  0  0  0  0  0  0  0  0  0  0
    2.8630    0.6227    1.8441 S   0  0  0  0  0  0  0  0  0  0  0  0
    1.2916   -1.3971    0.2439 O   0  0  0  0  0  0  0  0  0  0  0  0
    1.3341   -2.3436    1.3295 C   0  0  0  0  0  0  0  0  0  0  0  0
    2.6059   -3.1643    1.3128 C   0  0  0  0  0  0  0  0  0  0  0  0
    1.1670    1.0736   -1.1530 S   0  0  0  0  0  0  0  0  0  0  0  0
    0.2235    1.9265    0.1429 C   0  0  0  0  0  0  0  0  0  0  0  0
   -0.8457    0.8392    1.1257 S   0  0  0  0  0  0  0  0  0  0  0  0
   -2.1061    0.0711   -0.4377 P   0  0  0  0  0  0  0  0  0  0  0  0
   -1.4258   -1.3483   -1.5966 S   0  0  0  0  0  0  0  0  0  0  0  0
   -2.5725    1.3390   -1.2411 O   0  0  0  0  0  0  0  0  0  0  0  0
   -3.3345    2.4297   -0.6562 C   0  0  0  0  0  0  0  0  0  0  0  0
   -4.8172    2.2272   -0.8889 C   0  0  0  0  0  0  0  0  0  0  0  0
   -3.3894   -0.3398    0.4051 O   0  0  0  0  0  0  0  0  0  0  0  0
   -3.3881   -1.5230    1.2280 C   0  0  0  0  0  0  0  0  0  0  0  0
   -4.8247   -1.8366    1.5934 C   0  0  0  0  0  0  0  0  0  0  0  0
    4.0616    1.9428   -1.0463 H   0  0  0  0  0  0  0  0  0  0  0  0
    5.6210    1.6069   -1.8137 H   0  0  0  0  0  0  0  0  0  0  0  0
    4.1157    1.0777   -2.5885 H   0  0  0  0  0  0  0  0  0  0  0  0
    5.1247    0.0616    0.1134 H   0  0  0  0  0  0  0  0  0  0  0  0
    5.3292   -0.8219   -1.4303 H   0  0  0  0  0  0  0  0  0  0  0  0
    1.2369   -1.7919    2.2708 H   0  0  0  0  0  0  0  0  0  0  0  0
    0.4491   -2.9612    1.1663 H   0  0  0  0  0  0  0  0  0  0  0  0
    3.4633   -2.5211    1.5088 H   0  0  0  0  0  0  0  0  0  0  0  0
    2.5521   -3.9272    2.0830 H   0  0  0  0  0  0  0  0  0  0  0  0
    2.7332   -3.6352    0.3413 H   0  0  0  0  0  0  0  0  0  0  0  0
   -0.3703    2.6853   -0.3602 H   0  0  0  0  0  0  0  0  0  0  0  0
    0.9136    2.3749    0.8584 H   0  0  0  0  0  0  0  0  0  0  0  0
   -3.1078    2.4924    0.4113 H   0  0  0  0  0  0  0  0  0  0  0  0
   -2.9721    3.3210   -1.1721 H   0  0  0  0  0  0  0  0  0  0  0  0
   -5.3564    3.0898   -0.5099 H   0  0  0  0  0  0  0  0  0  0  0  0
   -5.0153    2.1177   -1.9515 H   0  0  0  0  0  0  0  0  0  0  0  0
   -5.1602    1.3337   -0.3747 H   0  0  0  0  0  0  0  0  0  0  0  0
   -2.9291   -2.3394    0.6602 H   0  0  0  0  0  0  0  0  0  0  0  0
   -2.7836   -1.3191    2.1166 H   0  0  0  0  0  0  0  0  0  0  0  0
   -5.4058   -2.0212    0.6943 H   0  0  0  0  0  0  0  0  0  0  0  0
   -4.8467   -2.7212    2.2212 H   0  0  0  0  0  0  0  0  0  0  0  0
   -5.2618   -1.0019    2.1335 H   0  0  0  0  0  0  0  0  0  0  0  0
  1  2  1  0  0  0  0
  2  3  1  0  0  0  0
  3  4  2  0  0  0  0
  4  5  2  0  0  0  0
  4  6  2  0  0  0  0
  6  7  1  0  0  0  0
  7  8  1  0  0  0  0
  4  9  1  0  0  0  0
  9 10  1  0  0  0  0
 10 11  1  0  0  0  0
 11 12  1  0  0  0  0
 12 13  2  0  0  0  0
 12 14  2  0  0  0  0
 14 15  1  0  0  0  0
 15 16  1  0  0  0  0
 12 17  2  0  0  0  0
 17 18  1  0  0  0  0
 18 19  1  0  0  0  0
  1 20  1  0  0  0  0
  1 21  1  0  0  0  0
  1 22  1  0  0  0  0
  2 23  1  0  0  0  0
  2 24  1  0  0  0  0
  7 25  1  0  0  0  0
  7 26  1  0  0  0  0
  8 27  1  0  0  0  0
  8 28  1  0  0  0  0
  8 29  1  0  0  0  0
 10 30  1  0  0  0  0
 10 31  1  0  0  0  0
 15 32  1  0  0  0  0
 15 33  1  0  0  0  0
 16 34  1  0  0  0  0
 16 35  1  0  0  0  0
 16 36  1  0  0  0  0
 18 37  1  0  0  0  0
 18 38  1  0  0  0  0
 19 39  1  0  0  0  0
 19 40  1  0  0  0  0
 19 41  1  0  0  0  0
M  END
