 xtb: 6.7.1 (edcfbbe)
          04092505203D

 41 40  0     0  0            999 V2000
    3.5944    1.6885   -1.0811 C   0  0  0  0  0  0  0  0  0  0  0  0
    3.1354    2.1758    0.2769 C   0  0  0  0  0  0  0  0  0  0  0  0
    1.8939    1.5586    0.6991 O   0  0  0  0  0  0  0  0  0  0  0  0
    1.7195    0.0188    1.0109 P   0  0  0  0  0  0  0  0  0  0  0  0
    0.3663   -0.3577    2.3766 S   0  0  0  0  0  0  0  0  0  0  0  0
    3.2032   -0.3634    1.4613 O   0  0  0  0  0  0  0  0  0  0  0  0
    3.4986   -1.5294    2.2457 C   0  0  0  0  0  0  0  0  0  0  0  0
    3.2107   -2.8190    1.5038 C   0  0  0  0  0  0  0  0  0  0  0  0
    1.4776   -0.9738   -0.8642 S   0  0  0  0  0  0  0  0  0  0  0  0
   -0.0847   -1.8508   -0.5905 C   0  0  0  0  0  0  0  0  0  0  0  0
   -1.4291   -1.3423   -1.7068 S   0  0  0  0  0  0  0  0  0  0  0  0
   -2.0713    0.4017   -0.6893 P   0  0  0  0  0  0  0  0  0  0  0  0
   -3.5831    1.3681   -1.4687 S   0  0  0  0  0  0  0  0  0  0  0  0
   -0.7291    1.2435   -0.4881 O   0  0  0  0  0  0  0  0  0  0  0  0
   -0.4218    2.3164   -1.4012 C   0  0  0  0  0  0  0  0  0  0  0  0
   -0.1021    1.8104   -2.7946 C   0  0  0  0  0  0  0  0  0  0  0  0
   -2.2565   -0.0452    0.8213 O   0  0  0  0  0  0  0  0  0  0  0  0
   -3.5268   -0.4865    1.3309 C   0  0  0  0  0  0  0  0  0  0  0  0
   -3.9147   -1.8508    0.7958 C   0  0  0  0  0  0  0  0  0  0  0  0
    3.7952    0.6189   -1.0478 H   0  0  0  0  0  0  0  0  0  0  0  0
    2.8362    1.8797   -1.8353 H   0  0  0  0  0  0  0  0  0  0  0  0
    4.5064    2.2109   -1.3531 H   0  0  0  0  0  0  0  0  0  0  0  0
    2.8962    3.2406    0.2655 H   0  0  0  0  0  0  0  0  0  0  0  0
    3.8925    1.9770    1.0377 H   0  0  0  0  0  0  0  0  0  0  0  0
    4.5606   -1.4258    2.4728 H   0  0  0  0  0  0  0  0  0  0  0  0
    2.9136   -1.4808    3.1696 H   0  0  0  0  0  0  0  0  0  0  0  0
    2.1365   -2.9377    1.3702 H   0  0  0  0  0  0  0  0  0  0  0  0
    3.6923   -2.8138    0.5293 H   0  0  0  0  0  0  0  0  0  0  0  0
    3.5842   -3.6553    2.0860 H   0  0  0  0  0  0  0  0  0  0  0  0
   -0.3905   -1.6914    0.4474 H   0  0  0  0  0  0  0  0  0  0  0  0
    0.0789   -2.9029   -0.8068 H   0  0  0  0  0  0  0  0  0  0  0  0
   -1.2778    2.9981   -1.4295 H   0  0  0  0  0  0  0  0  0  0  0  0
    0.4298    2.8153   -0.9380 H   0  0  0  0  0  0  0  0  0  0  0  0
   -0.9911    1.3600   -3.2363 H   0  0  0  0  0  0  0  0  0  0  0  0
    0.2119    2.6452   -3.4134 H   0  0  0  0  0  0  0  0  0  0  0  0
    0.6878    1.0629   -2.7635 H   0  0  0  0  0  0  0  0  0  0  0  0
   -3.3788   -0.5027    2.4120 H   0  0  0  0  0  0  0  0  0  0  0  0
   -4.2830    0.2608    1.0692 H   0  0  0  0  0  0  0  0  0  0  0  0
   -4.8390   -2.1674    1.2684 H   0  0  0  0  0  0  0  0  0  0  0  0
   -4.0679   -1.7993   -0.2819 H   0  0  0  0  0  0  0  0  0  0  0  0
   -3.1356   -2.5782    1.0104 H   0  0  0  0  0  0  0  0  0  0  0  0
  1  2  1  0  0  0  0
  2  3  1  0  0  0  0
  3  4  2  0  0  0  0
  4  5  2  0  0  0  0
  4  6  1  0  0  0  0
  6  7  1  0  0  0  0
  7  8  1  0  0  0  0
  4  9  1  0  0  0  0
  9 10  1  0  0  0  0
 10 11  1  0  0  0  0
 11 12  1  0  0  0  0
 12 13  2  0  0  0  0
 12 14  1  0  0  0  0
 14 15  1  0  0  0  0
 15 16  1  0  0  0  0
 12 17  2  0  0  0  0
 17 18  1  0  0  0  0
 18 19  1  0  0  0  0
  1 20  1  0  0  0  0
  1 21  1  0  0  0  0
  1 22  1  0  0  0  0
  2 23  1  0  0  0  0
  2 24  1  0  0  0  0
  7 25  1  0  0  0  0
  7 26  1  0  0  0  0
  8 27  1  0  0  0  0
  8 28  1  0  0  0  0
  8 29  1  0  0  0  0
 10 30  1  0  0  0  0
 10 31  1  0  0  0  0
 15 32  1  0  0  0  0
 15 33  1  0  0  0  0
 16 34  1  0  0  0  0
 16 35  1  0  0  0  0
 16 36  1  0  0  0  0
 18 37  1  0  0  0  0
 18 38  1  0  0  0  0
 19 39  1  0  0  0  0
 19 40  1  0  0  0  0
 19 41  1  0  0  0  0
M  END
