 xtb: 6.7.1 (edcfbbe)
          04092505213D

 41 40  0     0  0            999 V2000
    3.7762    1.7922   -0.4423 C   0  0  0  0  0  0  0  0  0  0  0  0
    2.5901    1.3254   -1.2586 C   0  0  0  0  0  0  0  0  0  0  0  0
    1.6332    0.6066   -0.4513 O   0  0  0  0  0  0  0  0  0  0  0  0
    1.9344   -0.7463    0.3102 P   0  0  0  0  0  0  0  0  0  0  0  0
    2.6452   -0.6141    2.1363 S   0  0  0  0  0  0  0  0  0  0  0  0
    2.8266   -1.5304   -0.7413 O   0  0  0  0  0  0  0  0  0  0  0  0
    3.4588   -2.7892   -0.4197 C   0  0  0  0  0  0  0  0  0  0  0  0
    4.9089   -2.5716   -0.0349 C   0  0  0  0  0  0  0  0  0  0  0  0
    0.0651   -1.7307    0.1969 S   0  0  0  0  0  0  0  0  0  0  0  0
   -0.6554   -1.0123    1.6957 C   0  0  0  0  0  0  0  0  0  0  0  0
   -0.7964    0.7991    1.6120 S   0  0  0  0  0  0  0  0  0  0  0  0
   -1.9296    0.9812   -0.1584 P   0  0  0  0  0  0  0  0  0  0  0  0
   -1.1562    0.9622   -1.9620 S   0  0  0  0  0  0  0  0  0  0  0  0
   -2.5356    2.3906    0.2615 O   0  0  0  0  0  0  0  0  0  0  0  0
   -3.1137    3.2959   -0.6970 C   0  0  0  0  0  0  0  0  0  0  0  0
   -4.4236    2.7683   -1.2471 C   0  0  0  0  0  0  0  0  0  0  0  0
   -3.0920   -0.0807    0.0763 O   0  0  0  0  0  0  0  0  0  0  0  0
   -3.5779   -1.0265   -0.8984 C   0  0  0  0  0  0  0  0  0  0  0  0
   -3.4280   -2.4425   -0.3798 C   0  0  0  0  0  0  0  0  0  0  0  0
    4.3187    0.9322   -0.0508 H   0  0  0  0  0  0  0  0  0  0  0  0
    4.4398    2.3776   -1.0708 H   0  0  0  0  0  0  0  0  0  0  0  0
    3.4420    2.3995    0.3961 H   0  0  0  0  0  0  0  0  0  0  0  0
    2.9015    0.6763   -2.0796 H   0  0  0  0  0  0  0  0  0  0  0  0
    2.0089    2.1614   -1.6527 H   0  0  0  0  0  0  0  0  0  0  0  0
    2.9089   -3.2737    0.3912 H   0  0  0  0  0  0  0  0  0  0  0  0
    3.3697   -3.3843   -1.3301 H   0  0  0  0  0  0  0  0  0  0  0  0
    5.4343   -2.0491   -0.8295 H   0  0  0  0  0  0  0  0  0  0  0  0
    4.9690   -1.9827    0.8781 H   0  0  0  0  0  0  0  0  0  0  0  0
    5.3805   -3.5340    0.1349 H   0  0  0  0  0  0  0  0  0  0  0  0
   -0.0057   -1.2206    2.5466 H   0  0  0  0  0  0  0  0  0  0  0  0
   -1.6387   -1.4570    1.8270 H   0  0  0  0  0  0  0  0  0  0  0  0
   -3.2518    4.2208   -0.1353 H   0  0  0  0  0  0  0  0  0  0  0  0
   -2.3929    3.4546   -1.5060 H   0  0  0  0  0  0  0  0  0  0  0  0
   -5.0968    2.5154   -0.4320 H   0  0  0  0  0  0  0  0  0  0  0  0
   -4.8829    3.5263   -1.8737 H   0  0  0  0  0  0  0  0  0  0  0  0
   -4.2382    1.8780   -1.8474 H   0  0  0  0  0  0  0  0  0  0  0  0
   -4.6295   -0.7763   -1.0547 H   0  0  0  0  0  0  0  0  0  0  0  0
   -3.0244   -0.8860   -1.8333 H   0  0  0  0  0  0  0  0  0  0  0  0
   -3.8902   -3.1237   -1.0869 H   0  0  0  0  0  0  0  0  0  0  0  0
   -2.3762   -2.7029   -0.2767 H   0  0  0  0  0  0  0  0  0  0  0  0
   -3.9199   -2.5420    0.5839 H   0  0  0  0  0  0  0  0  0  0  0  0
  1  2  1  0  0  0  0
  2  3  1  0  0  0  0
  3  4  2  0  0  0  0
  4  5  2  0  0  0  0
  4  6  2  0  0  0  0
  6  7  1  0  0  0  0
  7  8  1  0  0  0  0
  4  9  1  0  0  0  0
  9 10  1  0  0  0  0
 10 11  1  0  0  0  0
 11 12  1  0  0  0  0
 12 13  2  0  0  0  0
 12 14  2  0  0  0  0
 14 15  1  0  0  0  0
 15 16  1  0  0  0  0
 12 17  2  0  0  0  0
 17 18  1  0  0  0  0
 18 19  1  0  0  0  0
  1 20  1  0  0  0  0
  1 21  1  0  0  0  0
  1 22  1  0  0  0  0
  2 23  1  0  0  0  0
  2 24  1  0  0  0  0
  7 25  1  0  0  0  0
  7 26  1  0  0  0  0
  8 27  1  0  0  0  0
  8 28  1  0  0  0  0
  8 29  1  0  0  0  0
 10 30  1  0  0  0  0
 10 31  1  0  0  0  0
 15 32  1  0  0  0  0
 15 33  1  0  0  0  0
 16 34  1  0  0  0  0
 16 35  1  0  0  0  0
 16 36  1  0  0  0  0
 18 37  1  0  0  0  0
 18 38  1  0  0  0  0
 19 39  1  0  0  0  0
 19 40  1  0  0  0  0
 19 41  1  0  0  0  0
M  END
