 xtb: 6.7.1 (edcfbbe)
          04092505203D

 41 40  0     0  0            999 V2000
    4.2155   -1.6728   -1.7685 C   0  0  0  0  0  0  0  0  0  0  0  0
    4.6734   -1.0587   -0.4611 C   0  0  0  0  0  0  0  0  0  0  0  0
    3.5809   -0.8164    0.4415 O   0  0  0  0  0  0  0  0  0  0  0  0
    2.4628    0.2750    0.1541 P   0  0  0  0  0  0  0  0  0  0  0  0
    3.1159    1.9279   -0.6649 S   0  0  0  0  0  0  0  0  0  0  0  0
    1.8598    0.5545    1.5821 O   0  0  0  0  0  0  0  0  0  0  0  0
    1.0336   -0.3251    2.3820 C   0  0  0  0  0  0  0  0  0  0  0  0
    1.6449   -1.6949    2.5817 C   0  0  0  0  0  0  0  0  0  0  0  0
    0.9592   -0.7756   -0.9466 S   0  0  0  0  0  0  0  0  0  0  0  0
    0.1675    0.6894   -1.6431 C   0  0  0  0  0  0  0  0  0  0  0  0
   -0.8388    1.5954   -0.4396 S   0  0  0  0  0  0  0  0  0  0  0  0
   -2.4325    0.1961   -0.4209 P   0  0  0  0  0  0  0  0  0  0  0  0
   -2.9422   -0.5908   -2.1351 S   0  0  0  0  0  0  0  0  0  0  0  0
   -3.6419    0.9817    0.2299 O   0  0  0  0  0  0  0  0  0  0  0  0
   -3.5537    1.9890    1.2639 C   0  0  0  0  0  0  0  0  0  0  0  0
   -3.0057    1.4391    2.5638 C   0  0  0  0  0  0  0  0  0  0  0  0
   -1.8924   -0.8561    0.6566 O   0  0  0  0  0  0  0  0  0  0  0  0
   -2.1823   -2.2633    0.5742 C   0  0  0  0  0  0  0  0  0  0  0  0
   -3.5861   -2.5533    1.0636 C   0  0  0  0  0  0  0  0  0  0  0  0
    3.6044   -2.5522   -1.5824 H   0  0  0  0  0  0  0  0  0  0  0  0
    3.6299   -0.9507   -2.3354 H   0  0  0  0  0  0  0  0  0  0  0  0
    5.0841   -1.9551   -2.3548 H   0  0  0  0  0  0  0  0  0  0  0  0
    5.1896   -0.1107   -0.6424 H   0  0  0  0  0  0  0  0  0  0  0  0
    5.3240   -1.7352    0.0948 H   0  0  0  0  0  0  0  0  0  0  0  0
    0.9388    0.2167    3.3245 H   0  0  0  0  0  0  0  0  0  0  0  0
    0.0554   -0.4034    1.9008 H   0  0  0  0  0  0  0  0  0  0  0  0
    1.6974   -2.2262    1.6333 H   0  0  0  0  0  0  0  0  0  0  0  0
    2.6486   -1.6035    2.9883 H   0  0  0  0  0  0  0  0  0  0  0  0
    1.0276   -2.2600    3.2737 H   0  0  0  0  0  0  0  0  0  0  0  0
   -0.4682    0.3532   -2.4630 H   0  0  0  0  0  0  0  0  0  0  0  0
    0.9358    1.3829   -1.9883 H   0  0  0  0  0  0  0  0  0  0  0  0
   -2.9321    2.8087    0.8936 H   0  0  0  0  0  0  0  0  0  0  0  0
   -4.5854    2.3279    1.3712 H   0  0  0  0  0  0  0  0  0  0  0  0
   -3.0470    2.2156    3.3213 H   0  0  0  0  0  0  0  0  0  0  0  0
   -3.5956    0.5873    2.8911 H   0  0  0  0  0  0  0  0  0  0  0  0
   -1.9715    1.1281    2.4331 H   0  0  0  0  0  0  0  0  0  0  0  0
   -2.0579   -2.5878   -0.4635 H   0  0  0  0  0  0  0  0  0  0  0  0
   -1.4242   -2.7344    1.2012 H   0  0  0  0  0  0  0  0  0  0  0  0
   -4.3060   -2.0271    0.4369 H   0  0  0  0  0  0  0  0  0  0  0  0
   -3.7776   -3.6198    1.0027 H   0  0  0  0  0  0  0  0  0  0  0  0
   -3.7057   -2.2233    2.0919 H   0  0  0  0  0  0  0  0  0  0  0  0
  1  2  1  0  0  0  0
  2  3  1  0  0  0  0
  3  4  2  0  0  0  0
  4  5  2  0  0  0  0
  4  6  2  0  0  0  0
  6  7  1  0  0  0  0
  7  8  1  0  0  0  0
  4  9  1  0  0  0  0
  9 10  1  0  0  0  0
 10 11  1  0  0  0  0
 11 12  1  0  0  0  0
 12 13  2  0  0  0  0
 12 14  2  0  0  0  0
 14 15  1  0  0  0  0
 15 16  1  0  0  0  0
 12 17  1  0  0  0  0
 17 18  1  0  0  0  0
 18 19  1  0  0  0  0
  1 20  1  0  0  0  0
  1 21  1  0  0  0  0
  1 22  1  0  0  0  0
  2 23  1  0  0  0  0
  2 24  1  0  0  0  0
  7 25  1  0  0  0  0
  7 26  1  0  0  0  0
  8 27  1  0  0  0  0
  8 28  1  0  0  0  0
  8 29  1  0  0  0  0
 10 30  1  0  0  0  0
 10 31  1  0  0  0  0
 15 32  1  0  0  0  0
 15 33  1  0  0  0  0
 16 34  1  0  0  0  0
 16 35  1  0  0  0  0
 16 36  1  0  0  0  0
 18 37  1  0  0  0  0
 18 38  1  0  0  0  0
 19 39  1  0  0  0  0
 19 40  1  0  0  0  0
 19 41  1  0  0  0  0
M  END
