 xtb: 6.7.1 (edcfbbe)
          04092505213D

 41 40  0     0  0            999 V2000
    4.5025   -1.3567   -1.9302 C   0  0  0  0  0  0  0  0  0  0  0  0
    3.4808   -2.3165   -1.3568 C   0  0  0  0  0  0  0  0  0  0  0  0
    2.8483   -1.8161   -0.1633 O   0  0  0  0  0  0  0  0  0  0  0  0
    2.1511   -0.4010   -0.0068 P   0  0  0  0  0  0  0  0  0  0  0  0
    3.2949    1.1767    0.2306 S   0  0  0  0  0  0  0  0  0  0  0  0
    1.1943   -0.7244    1.2157 O   0  0  0  0  0  0  0  0  0  0  0  0
    1.3691   -0.1503    2.5226 C   0  0  0  0  0  0  0  0  0  0  0  0
    2.4565   -0.8785    3.2844 C   0  0  0  0  0  0  0  0  0  0  0  0
    0.8028   -0.3516   -1.6484 S   0  0  0  0  0  0  0  0  0  0  0  0
    0.4032    1.4093   -1.5354 C   0  0  0  0  0  0  0  0  0  0  0  0
   -0.3628    1.8574    0.0506 S   0  0  0  0  0  0  0  0  0  0  0  0
   -2.0559    0.6124   -0.1297 P   0  0  0  0  0  0  0  0  0  0  0  0
   -2.8187    0.3428   -1.9168 S   0  0  0  0  0  0  0  0  0  0  0  0
   -2.9362    1.4203    0.9079 O   0  0  0  0  0  0  0  0  0  0  0  0
   -4.3078    1.0350    1.1600 C   0  0  0  0  0  0  0  0  0  0  0  0
   -5.0003    2.1992    1.8375 C   0  0  0  0  0  0  0  0  0  0  0  0
   -1.7509   -0.7368    0.6626 O   0  0  0  0  0  0  0  0  0  0  0  0
   -1.6371   -2.0428    0.0716 C   0  0  0  0  0  0  0  0  0  0  0  0
   -2.7693   -2.9195    0.5693 C   0  0  0  0  0  0  0  0  0  0  0  0
    5.2356   -1.0853   -1.1742 H   0  0  0  0  0  0  0  0  0  0  0  0
    5.0075   -1.8268   -2.7679 H   0  0  0  0  0  0  0  0  0  0  0  0
    4.0121   -0.4481   -2.2768 H   0  0  0  0  0  0  0  0  0  0  0  0
    3.9476   -3.2465   -1.0273 H   0  0  0  0  0  0  0  0  0  0  0  0
    2.6987   -2.5326   -2.0900 H   0  0  0  0  0  0  0  0  0  0  0  0
    1.6114    0.9125    2.4149 H   0  0  0  0  0  0  0  0  0  0  0  0
    0.3917   -0.2554    2.9965 H   0  0  0  0  0  0  0  0  0  0  0  0
    2.5411   -0.4619    4.2829 H   0  0  0  0  0  0  0  0  0  0  0  0
    2.2260   -1.9383    3.3491 H   0  0  0  0  0  0  0  0  0  0  0  0
    3.4064   -0.7568    2.7649 H   0  0  0  0  0  0  0  0  0  0  0  0
   -0.2838    1.6238   -2.3531 H   0  0  0  0  0  0  0  0  0  0  0  0
    1.3155    2.0002   -1.6133 H   0  0  0  0  0  0  0  0  0  0  0  0
   -4.7810    0.7884    0.2031 H   0  0  0  0  0  0  0  0  0  0  0  0
   -4.3006    0.1467    1.7970 H   0  0  0  0  0  0  0  0  0  0  0  0
   -4.9884    3.0693    1.1873 H   0  0  0  0  0  0  0  0  0  0  0  0
   -6.0279    1.9261    2.0542 H   0  0  0  0  0  0  0  0  0  0  0  0
   -4.4882    2.4469    2.7627 H   0  0  0  0  0  0  0  0  0  0  0  0
   -1.6689   -1.9481   -1.0189 H   0  0  0  0  0  0  0  0  0  0  0  0
   -0.6614   -2.4284    0.3759 H   0  0  0  0  0  0  0  0  0  0  0  0
   -2.6405   -3.9222    0.1752 H   0  0  0  0  0  0  0  0  0  0  0  0
   -2.7668   -2.9562    1.6550 H   0  0  0  0  0  0  0  0  0  0  0  0
   -3.7234   -2.5235    0.2279 H   0  0  0  0  0  0  0  0  0  0  0  0
  1  2  1  0  0  0  0
  2  3  1  0  0  0  0
  3  4  2  0  0  0  0
  4  5  2  0  0  0  0
  4  6  2  0  0  0  0
  6  7  1  0  0  0  0
  7  8  1  0  0  0  0
  4  9  1  0  0  0  0
  9 10  1  0  0  0  0
 10 11  1  0  0  0  0
 11 12  1  0  0  0  0
 12 13  2  0  0  0  0
 12 14  2  0  0  0  0
 14 15  1  0  0  0  0
 15 16  1  0  0  0  0
 12 17  2  0  0  0  0
 17 18  1  0  0  0  0
 18 19  1  0  0  0  0
  1 20  1  0  0  0  0
  1 21  1  0  0  0  0
  1 22  1  0  0  0  0
  2 23  1  0  0  0  0
  2 24  1  0  0  0  0
  7 25  1  0  0  0  0
  7 26  1  0  0  0  0
  8 27  1  0  0  0  0
  8 28  1  0  0  0  0
  8 29  1  0  0  0  0
 10 30  1  0  0  0  0
 10 31  1  0  0  0  0
 15 32  1  0  0  0  0
 15 33  1  0  0  0  0
 16 34  1  0  0  0  0
 16 35  1  0  0  0  0
 16 36  1  0  0  0  0
 18 37  1  0  0  0  0
 18 38  1  0  0  0  0
 19 39  1  0  0  0  0
 19 40  1  0  0  0  0
 19 41  1  0  0  0  0
M  END
