 xtb: 6.7.1 (edcfbbe)
          04092505213D

 41 40  0     0  0            999 V2000
    5.6114   -0.3455   -0.9828 C   0  0  0  0  0  0  0  0  0  0  0  0
    4.4577   -1.2352   -1.3946 C   0  0  0  0  0  0  0  0  0  0  0  0
    3.3767   -1.1919   -0.4402 O   0  0  0  0  0  0  0  0  0  0  0  0
    2.4877    0.1027   -0.2226 P   0  0  0  0  0  0  0  0  0  0  0  0
    2.1134    1.1279   -1.8589 S   0  0  0  0  0  0  0  0  0  0  0  0
    3.2803    0.8815    0.9115 O   0  0  0  0  0  0  0  0  0  0  0  0
    3.0259    2.2605    1.2287 C   0  0  0  0  0  0  0  0  0  0  0  0
    1.6644    2.4526    1.8638 C   0  0  0  0  0  0  0  0  0  0  0  0
    0.8817   -0.8141    0.7751 S   0  0  0  0  0  0  0  0  0  0  0  0
    0.0024   -1.3380   -0.7434 C   0  0  0  0  0  0  0  0  0  0  0  0
   -1.6750   -1.8634   -0.3796 S   0  0  0  0  0  0  0  0  0  0  0  0
   -2.5624    0.0478    0.0278 P   0  0  0  0  0  0  0  0  0  0  0  0
   -1.4804    1.6178   -0.4058 S   0  0  0  0  0  0  0  0  0  0  0  0
   -3.0965   -0.1095    1.5200 O   0  0  0  0  0  0  0  0  0  0  0  0
   -2.2571   -0.2899    2.6753 C   0  0  0  0  0  0  0  0  0  0  0  0
   -1.8262    1.0434    3.2533 C   0  0  0  0  0  0  0  0  0  0  0  0
   -3.9146    0.0744   -0.7704 O   0  0  0  0  0  0  0  0  0  0  0  0
   -4.9163   -0.9760   -0.7011 C   0  0  0  0  0  0  0  0  0  0  0  0
   -4.9298   -1.7670   -1.9936 C   0  0  0  0  0  0  0  0  0  0  0  0
    5.9262   -0.5831    0.0299 H   0  0  0  0  0  0  0  0  0  0  0  0
    6.4419   -0.4936   -1.6659 H   0  0  0  0  0  0  0  0  0  0  0  0
    5.3043    0.6989   -1.0207 H   0  0  0  0  0  0  0  0  0  0  0  0
    4.7437   -2.2875   -1.4151 H   0  0  0  0  0  0  0  0  0  0  0  0
    4.0672   -0.9324   -2.3716 H   0  0  0  0  0  0  0  0  0  0  0  0
    3.8326    2.5237    1.9143 H   0  0  0  0  0  0  0  0  0  0  0  0
    3.1068    2.8504    0.3098 H   0  0  0  0  0  0  0  0  0  0  0  0
    1.5649    3.4778    2.2056 H   0  0  0  0  0  0  0  0  0  0  0  0
    0.8803    2.2537    1.1321 H   0  0  0  0  0  0  0  0  0  0  0  0
    1.5437    1.7757    2.7061 H   0  0  0  0  0  0  0  0  0  0  0  0
    0.5102   -2.1971   -1.1758 H   0  0  0  0  0  0  0  0  0  0  0  0
   -0.0156   -0.4913   -1.4343 H   0  0  0  0  0  0  0  0  0  0  0  0
   -2.8838   -0.8430    3.3776 H   0  0  0  0  0  0  0  0  0  0  0  0
   -1.3870   -0.8959    2.4020 H   0  0  0  0  0  0  0  0  0  0  0  0
   -1.2329    1.5930    2.5264 H   0  0  0  0  0  0  0  0  0  0  0  0
   -2.6973    1.6392    3.5114 H   0  0  0  0  0  0  0  0  0  0  0  0
   -1.2290    0.8718    4.1426 H   0  0  0  0  0  0  0  0  0  0  0  0
   -4.7061   -1.6167    0.1569 H   0  0  0  0  0  0  0  0  0  0  0  0
   -5.8593   -0.4494   -0.5468 H   0  0  0  0  0  0  0  0  0  0  0  0
   -5.0747   -1.0977   -2.8371 H   0  0  0  0  0  0  0  0  0  0  0  0
   -3.9912   -2.3001   -2.1231 H   0  0  0  0  0  0  0  0  0  0  0  0
   -5.7440   -2.4839   -1.9611 H   0  0  0  0  0  0  0  0  0  0  0  0
  1  2  1  0  0  0  0
  2  3  1  0  0  0  0
  3  4  2  0  0  0  0
  4  5  2  0  0  0  0
  4  6  2  0  0  0  0
  6  7  1  0  0  0  0
  7  8  1  0  0  0  0
  4  9  1  0  0  0  0
  9 10  1  0  0  0  0
 10 11  1  0  0  0  0
 11 12  1  0  0  0  0
 12 13  2  0  0  0  0
 12 14  2  0  0  0  0
 14 15  1  0  0  0  0
 15 16  1  0  0  0  0
 12 17  2  0  0  0  0
 17 18  1  0  0  0  0
 18 19  1  0  0  0  0
  1 20  1  0  0  0  0
  1 21  1  0  0  0  0
  1 22  1  0  0  0  0
  2 23  1  0  0  0  0
  2 24  1  0  0  0  0
  7 25  1  0  0  0  0
  7 26  1  0  0  0  0
  8 27  1  0  0  0  0
  8 28  1  0  0  0  0
  8 29  1  0  0  0  0
 10 30  1  0  0  0  0
 10 31  1  0  0  0  0
 15 32  1  0  0  0  0
 15 33  1  0  0  0  0
 16 34  1  0  0  0  0
 16 35  1  0  0  0  0
 16 36  1  0  0  0  0
 18 37  1  0  0  0  0
 18 38  1  0  0  0  0
 19 39  1  0  0  0  0
 19 40  1  0  0  0  0
 19 41  1  0  0  0  0
M  END
