 xtb: 6.7.1 (edcfbbe)
          04032519423D

 20 20  0     0  0            999 V2000
    0.6246    1.6916   -0.0770 C   0  0  0  0  0  0  0  0  0  0  0  0
    1.4146    0.3843   -0.2504 C   0  0  0  0  0  0  0  0  0  0  0  0
    1.6679    0.2265   -1.3080 H   0  0  0  0  0  0  0  0  0  0  0  0
    0.5479   -0.8007    0.1922 C   0  0  0  0  0  0  0  0  0  0  0  0
    0.3912   -0.7414    1.2785 H   0  0  0  0  0  0  0  0  0  0  0  0
   -0.8182   -0.7407   -0.5067 C   0  0  0  0  0  0  0  0  0  0  0  0
   -0.6502   -0.8410   -1.5910 H   0  0  0  0  0  0  0  0  0  0  0  0
   -1.4774    0.6306   -0.2642 C   0  0  0  0  0  0  0  0  0  0  0  0
   -2.3793    0.7229   -0.8891 H   0  0  0  0  0  0  0  0  0  0  0  0
   -0.6352    1.6590   -0.7292 O   0  0  0  0  0  0  0  0  0  0  0  0
   -1.7795    0.7553    1.0851 O   0  0  0  0  0  0  0  0  0  0  0  0
   -1.5836   -1.8095   -0.0175 O   0  0  0  0  0  0  0  0  0  0  0  0
    1.2203   -1.9879   -0.1466 O   0  0  0  0  0  0  0  0  0  0  0  0
    2.5712    0.3995    0.5496 O   0  0  0  0  0  0  0  0  0  0  0  0
    1.1527    2.5331   -0.5252 H   0  0  0  0  0  0  0  0  0  0  0  0
    0.4920    1.8659    0.9978 H   0  0  0  0  0  0  0  0  0  0  0  0
   -2.3131    1.5502    1.2394 H   0  0  0  0  0  0  0  0  0  0  0  0
   -2.4548   -1.8212   -0.4383 H   0  0  0  0  0  0  0  0  0  0  0  0
    0.6611   -2.7349    0.1142 H   0  0  0  0  0  0  0  0  0  0  0  0
    3.2414    0.9701    0.1479 H   0  0  0  0  0  0  0  0  0  0  0  0
  1  2  1  0  0  0  0
  2  3  1  0  0  0  0
  2  4  1  0  0  0  0
  4  5  1  0  0  0  0
  4  6  1  0  0  0  0
  6  7  1  0  0  0  0
  6  8  1  0  0  0  0
  8  9  1  0  0  0  0
  1 10  1  0  0  0  0
  8 10  1  0  0  0  0
  8 11  1  0  0  0  0
  6 12  1  0  0  0  0
  4 13  1  0  0  0  0
  2 14  1  0  0  0  0
  1 15  1  0  0  0  0
  1 16  1  0  0  0  0
 11 17  1  0  0  0  0
 12 18  1  0  0  0  0
 13 19  1  0  0  0  0
 14 20  1  0  0  0  0
M  END
