 xtb: 6.7.1 (edcfbbe)
          04092505213D

 41 40  0     0  0            999 V2000
    2.5876   -3.1670   -0.3892 C   0  0  0  0  0  0  0  0  0  0  0  0
    3.3593   -2.1781   -1.2378 C   0  0  0  0  0  0  0  0  0  0  0  0
    3.5332   -0.9012   -0.5812 O   0  0  0  0  0  0  0  0  0  0  0  0
    2.3751    0.1014   -0.1648 P   0  0  0  0  0  0  0  0  0  0  0  0
    3.1303    1.8758    0.1494 S   0  0  0  0  0  0  0  0  0  0  0  0
    1.6082   -0.5453    1.0801 O   0  0  0  0  0  0  0  0  0  0  0  0
    1.9661   -0.2516    2.4472 C   0  0  0  0  0  0  0  0  0  0  0  0
    1.0351    0.7879    3.0376 C   0  0  0  0  0  0  0  0  0  0  0  0
    0.9239   -0.1181   -1.6836 S   0  0  0  0  0  0  0  0  0  0  0  0
    0.1652    1.5118   -1.4794 C   0  0  0  0  0  0  0  0  0  0  0  0
   -0.7299    1.7045    0.0797 S   0  0  0  0  0  0  0  0  0  0  0  0
   -2.1854    0.2146   -0.2957 P   0  0  0  0  0  0  0  0  0  0  0  0
   -2.8236    0.0647   -2.1358 S   0  0  0  0  0  0  0  0  0  0  0  0
   -3.3746    0.5332    0.7018 O   0  0  0  0  0  0  0  0  0  0  0  0
   -3.2524    0.5113    2.1451 C   0  0  0  0  0  0  0  0  0  0  0  0
   -2.9838    1.8983    2.6935 C   0  0  0  0  0  0  0  0  0  0  0  0
   -1.4367   -1.0678    0.3018 O   0  0  0  0  0  0  0  0  0  0  0  0
   -1.6435   -2.3881   -0.2322 C   0  0  0  0  0  0  0  0  0  0  0  0
   -3.0202   -2.9177    0.1145 C   0  0  0  0  0  0  0  0  0  0  0  0
    1.5755   -2.8035   -0.2249 H   0  0  0  0  0  0  0  0  0  0  0  0
    2.5427   -4.1197   -0.9076 H   0  0  0  0  0  0  0  0  0  0  0  0
    3.0774   -3.3033    0.5717 H   0  0  0  0  0  0  0  0  0  0  0  0
    2.8541   -2.0068   -2.1921 H   0  0  0  0  0  0  0  0  0  0  0  0
    4.3833   -2.5103   -1.4161 H   0  0  0  0  0  0  0  0  0  0  0  0
    1.8771   -1.2070    2.9676 H   0  0  0  0  0  0  0  0  0  0  0  0
    3.0042    0.0924    2.4819 H   0  0  0  0  0  0  0  0  0  0  0  0
    0.0031    0.4651    2.9329 H   0  0  0  0  0  0  0  0  0  0  0  0
    1.2681    0.9214    4.0889 H   0  0  0  0  0  0  0  0  0  0  0  0
    1.1576    1.7375    2.5211 H   0  0  0  0  0  0  0  0  0  0  0  0
   -0.5266    1.6328   -2.3130 H   0  0  0  0  0  0  0  0  0  0  0  0
    0.9408    2.2779   -1.4868 H   0  0  0  0  0  0  0  0  0  0  0  0
   -4.2172    0.1328    2.4875 H   0  0  0  0  0  0  0  0  0  0  0  0
   -2.4606   -0.1886    2.4228 H   0  0  0  0  0  0  0  0  0  0  0  0
   -3.7578    2.5848    2.3619 H   0  0  0  0  0  0  0  0  0  0  0  0
   -2.9823    1.8568    3.7783 H   0  0  0  0  0  0  0  0  0  0  0  0
   -2.0201    2.2691    2.3499 H   0  0  0  0  0  0  0  0  0  0  0  0
   -1.5034   -2.3516   -1.3171 H   0  0  0  0  0  0  0  0  0  0  0  0
   -0.8537   -2.9865    0.2246 H   0  0  0  0  0  0  0  0  0  0  0  0
   -3.1605   -2.9407    1.1921 H   0  0  0  0  0  0  0  0  0  0  0  0
   -3.7815   -2.2759   -0.3287 H   0  0  0  0  0  0  0  0  0  0  0  0
   -3.1307   -3.9211   -0.2844 H   0  0  0  0  0  0  0  0  0  0  0  0
  1  2  1  0  0  0  0
  2  3  1  0  0  0  0
  3  4  2  0  0  0  0
  4  5  2  0  0  0  0
  4  6  1  0  0  0  0
  6  7  1  0  0  0  0
  7  8  1  0  0  0  0
  4  9  1  0  0  0  0
  9 10  1  0  0  0  0
 10 11  1  0  0  0  0
 11 12  1  0  0  0  0
 12 13  2  0  0  0  0
 12 14  2  0  0  0  0
 14 15  1  0  0  0  0
 15 16  1  0  0  0  0
 12 17  1  0  0  0  0
 17 18  1  0  0  0  0
 18 19  1  0  0  0  0
  1 20  1  0  0  0  0
  1 21  1  0  0  0  0
  1 22  1  0  0  0  0
  2 23  1  0  0  0  0
  2 24  1  0  0  0  0
  7 25  1  0  0  0  0
  7 26  1  0  0  0  0
  8 27  1  0  0  0  0
  8 28  1  0  0  0  0
  8 29  1  0  0  0  0
 10 30  1  0  0  0  0
 10 31  1  0  0  0  0
 15 32  1  0  0  0  0
 15 33  1  0  0  0  0
 16 34  1  0  0  0  0
 16 35  1  0  0  0  0
 16 36  1  0  0  0  0
 18 37  1  0  0  0  0
 18 38  1  0  0  0  0
 19 39  1  0  0  0  0
 19 40  1  0  0  0  0
 19 41  1  0  0  0  0
M  END
