 xtb: 6.7.1 (edcfbbe)
          04092505203D

 41 40  0     0  0            999 V2000
    5.7391   -0.1993    0.1730 C   0  0  0  0  0  0  0  0  0  0  0  0
    4.3934   -0.6055   -0.3933 C   0  0  0  0  0  0  0  0  0  0  0  0
    3.3759    0.1366    0.3059 O   0  0  0  0  0  0  0  0  0  0  0  0
    1.8932    0.2403   -0.2595 P   0  0  0  0  0  0  0  0  0  0  0  0
    1.7871    0.7452   -2.1552 S   0  0  0  0  0  0  0  0  0  0  0  0
    1.2401    1.2032    0.8132 O   0  0  0  0  0  0  0  0  0  0  0  0
    1.2424    2.6377    0.6555 C   0  0  0  0  0  0  0  0  0  0  0  0
    2.6435    3.2080    0.6341 C   0  0  0  0  0  0  0  0  0  0  0  0
    1.1037   -1.6451    0.2599 S   0  0  0  0  0  0  0  0  0  0  0  0
   -0.0574   -1.9173   -1.1198 C   0  0  0  0  0  0  0  0  0  0  0  0
   -1.7564   -2.2125   -0.5692 S   0  0  0  0  0  0  0  0  0  0  0  0
   -2.1863   -0.3026    0.1819 P   0  0  0  0  0  0  0  0  0  0  0  0
   -1.5863    1.2616   -0.8507 S   0  0  0  0  0  0  0  0  0  0  0  0
   -1.5904   -0.4457    1.6409 O   0  0  0  0  0  0  0  0  0  0  0  0
   -1.6321    0.6438    2.5900 C   0  0  0  0  0  0  0  0  0  0  0  0
   -0.5402    0.4131    3.6138 C   0  0  0  0  0  0  0  0  0  0  0  0
   -3.7486   -0.3080    0.4766 O   0  0  0  0  0  0  0  0  0  0  0  0
   -4.7225    0.0966   -0.5020 C   0  0  0  0  0  0  0  0  0  0  0  0
   -4.7943   -0.8716   -1.6646 C   0  0  0  0  0  0  0  0  0  0  0  0
    6.5190   -0.7694   -0.3207 H   0  0  0  0  0  0  0  0  0  0  0  0
    5.9111    0.8606    0.0086 H   0  0  0  0  0  0  0  0  0  0  0  0
    5.7662   -0.3995    1.2400 H   0  0  0  0  0  0  0  0  0  0  0  0
    4.2024   -1.6718   -0.2435 H   0  0  0  0  0  0  0  0  0  0  0  0
    4.3188   -0.3759   -1.4617 H   0  0  0  0  0  0  0  0  0  0  0  0
    0.7024    2.8830   -0.2653 H   0  0  0  0  0  0  0  0  0  0  0  0
    0.6739    2.9936    1.5162 H   0  0  0  0  0  0  0  0  0  0  0  0
    3.1676    2.8667   -0.2580 H   0  0  0  0  0  0  0  0  0  0  0  0
    2.5877    4.2920    0.6166 H   0  0  0  0  0  0  0  0  0  0  0  0
    3.1939    2.8840    1.5135 H   0  0  0  0  0  0  0  0  0  0  0  0
    0.2442   -2.8212   -1.6427 H   0  0  0  0  0  0  0  0  0  0  0  0
   -0.0190   -1.0490   -1.7841 H   0  0  0  0  0  0  0  0  0  0  0  0
   -1.4863    1.5840    2.0465 H   0  0  0  0  0  0  0  0  0  0  0  0
   -2.6234    0.6451    3.0493 H   0  0  0  0  0  0  0  0  0  0  0  0
    0.4324    0.4195    3.1282 H   0  0  0  0  0  0  0  0  0  0  0  0
   -0.5772    1.2001    4.3601 H   0  0  0  0  0  0  0  0  0  0  0  0
   -0.6840   -0.5502    4.0943 H   0  0  0  0  0  0  0  0  0  0  0  0
   -5.6579    0.1271    0.0582 H   0  0  0  0  0  0  0  0  0  0  0  0
   -4.4629    1.1010   -0.8518 H   0  0  0  0  0  0  0  0  0  0  0  0
   -4.9392   -1.8863   -1.3029 H   0  0  0  0  0  0  0  0  0  0  0  0
   -5.6204   -0.5957   -2.3121 H   0  0  0  0  0  0  0  0  0  0  0  0
   -3.8688   -0.8332   -2.2380 H   0  0  0  0  0  0  0  0  0  0  0  0
  1  2  1  0  0  0  0
  2  3  1  0  0  0  0
  3  4  2  0  0  0  0
  4  5  2  0  0  0  0
  4  6  2  0  0  0  0
  6  7  1  0  0  0  0
  7  8  1  0  0  0  0
  4  9  1  0  0  0  0
  9 10  1  0  0  0  0
 10 11  1  0  0  0  0
 11 12  1  0  0  0  0
 12 13  2  0  0  0  0
 12 14  2  0  0  0  0
 14 15  1  0  0  0  0
 15 16  1  0  0  0  0
 12 17  2  0  0  0  0
 17 18  1  0  0  0  0
 18 19  1  0  0  0  0
  1 20  1  0  0  0  0
  1 21  1  0  0  0  0
  1 22  1  0  0  0  0
  2 23  1  0  0  0  0
  2 24  1  0  0  0  0
  7 25  1  0  0  0  0
  7 26  1  0  0  0  0
  8 27  1  0  0  0  0
  8 28  1  0  0  0  0
  8 29  1  0  0  0  0
 10 30  1  0  0  0  0
 10 31  1  0  0  0  0
 15 32  1  0  0  0  0
 15 33  1  0  0  0  0
 16 34  1  0  0  0  0
 16 35  1  0  0  0  0
 16 36  1  0  0  0  0
 18 37  1  0  0  0  0
 18 38  1  0  0  0  0
 19 39  1  0  0  0  0
 19 40  1  0  0  0  0
 19 41  1  0  0  0  0
M  END
