 xtb: 6.7.1 (edcfbbe)
          04092505203D

 41 40  0     0  0            999 V2000
    4.5587   -1.5863   -0.5857 C   0  0  0  0  0  0  0  0  0  0  0  0
    4.5884   -0.1358   -0.1486 C   0  0  0  0  0  0  0  0  0  0  0  0
    3.3967    0.2458    0.5591 O   0  0  0  0  0  0  0  0  0  0  0  0
    1.9754    0.3587   -0.1476 P   0  0  0  0  0  0  0  0  0  0  0  0
    2.0344    1.0616   -1.9814 S   0  0  0  0  0  0  0  0  0  0  0  0
    1.1652    1.1851    0.9333 O   0  0  0  0  0  0  0  0  0  0  0  0
    1.1338    2.6237    0.9466 C   0  0  0  0  0  0  0  0  0  0  0  0
    2.4840    3.2221    1.2779 C   0  0  0  0  0  0  0  0  0  0  0  0
    1.1612   -1.5576    0.1370 S   0  0  0  0  0  0  0  0  0  0  0  0
    0.0015   -1.6503   -1.2697 C   0  0  0  0  0  0  0  0  0  0  0  0
   -1.7090   -1.9113   -0.7535 S   0  0  0  0  0  0  0  0  0  0  0  0
   -2.0666    0.0157    0.0661 P   0  0  0  0  0  0  0  0  0  0  0  0
   -1.4809    1.5118   -1.0511 S   0  0  0  0  0  0  0  0  0  0  0  0
   -1.4165    0.0242    1.4994 O   0  0  0  0  0  0  0  0  0  0  0  0
   -1.7651   -0.9499    2.5212 C   0  0  0  0  0  0  0  0  0  0  0  0
   -0.6065   -1.0444    3.4911 C   0  0  0  0  0  0  0  0  0  0  0  0
   -3.6156    0.0024    0.4210 O   0  0  0  0  0  0  0  0  0  0  0  0
   -4.6498    0.2021   -0.5615 C   0  0  0  0  0  0  0  0  0  0  0  0
   -5.1200   -1.1147   -1.1469 C   0  0  0  0  0  0  0  0  0  0  0  0
    4.3284   -2.2314    0.2583 H   0  0  0  0  0  0  0  0  0  0  0  0
    3.8003   -1.7271   -1.3545 H   0  0  0  0  0  0  0  0  0  0  0  0
    5.5271   -1.8563   -0.9944 H   0  0  0  0  0  0  0  0  0  0  0  0
    4.6998    0.5227   -1.0162 H   0  0  0  0  0  0  0  0  0  0  0  0
    5.3886    0.0530    0.5682 H   0  0  0  0  0  0  0  0  0  0  0  0
    0.7787    2.9714   -0.0299 H   0  0  0  0  0  0  0  0  0  0  0  0
    0.3837    2.8581    1.7039 H   0  0  0  0  0  0  0  0  0  0  0  0
    3.1872    3.0204    0.4708 H   0  0  0  0  0  0  0  0  0  0  0  0
    2.3791    4.2965    1.3934 H   0  0  0  0  0  0  0  0  0  0  0  0
    2.8686    2.7913    2.1986 H   0  0  0  0  0  0  0  0  0  0  0  0
    0.2681   -2.5164   -1.8698 H   0  0  0  0  0  0  0  0  0  0  0  0
    0.0792   -0.7275   -1.8513 H   0  0  0  0  0  0  0  0  0  0  0  0
   -2.6756   -0.5973    3.0085 H   0  0  0  0  0  0  0  0  0  0  0  0
   -1.9608   -1.9111    2.0368 H   0  0  0  0  0  0  0  0  0  0  0  0
    0.2862   -1.3938    2.9781 H   0  0  0  0  0  0  0  0  0  0  0  0
   -0.4002   -0.0691    3.9228 H   0  0  0  0  0  0  0  0  0  0  0  0
   -0.8624   -1.7428    4.2813 H   0  0  0  0  0  0  0  0  0  0  0  0
   -5.4509    0.6986   -0.0108 H   0  0  0  0  0  0  0  0  0  0  0  0
   -4.2717    0.8747   -1.3383 H   0  0  0  0  0  0  0  0  0  0  0  0
   -5.9633   -0.9271   -1.8036 H   0  0  0  0  0  0  0  0  0  0  0  0
   -4.3245   -1.5885   -1.7168 H   0  0  0  0  0  0  0  0  0  0  0  0
   -5.4274   -1.7867   -0.3508 H   0  0  0  0  0  0  0  0  0  0  0  0
  1  2  1  0  0  0  0
  2  3  1  0  0  0  0
  3  4  2  0  0  0  0
  4  5  2  0  0  0  0
  4  6  2  0  0  0  0
  6  7  1  0  0  0  0
  7  8  1  0  0  0  0
  4  9  1  0  0  0  0
  9 10  1  0  0  0  0
 10 11  1  0  0  0  0
 11 12  1  0  0  0  0
 12 13  2  0  0  0  0
 12 14  2  0  0  0  0
 14 15  1  0  0  0  0
 15 16  1  0  0  0  0
 12 17  2  0  0  0  0
 17 18  1  0  0  0  0
 18 19  1  0  0  0  0
  1 20  1  0  0  0  0
  1 21  1  0  0  0  0
  1 22  1  0  0  0  0
  2 23  1  0  0  0  0
  2 24  1  0  0  0  0
  7 25  1  0  0  0  0
  7 26  1  0  0  0  0
  8 27  1  0  0  0  0
  8 28  1  0  0  0  0
  8 29  1  0  0  0  0
 10 30  1  0  0  0  0
 10 31  1  0  0  0  0
 15 32  1  0  0  0  0
 15 33  1  0  0  0  0
 16 34  1  0  0  0  0
 16 35  1  0  0  0  0
 16 36  1  0  0  0  0
 18 37  1  0  0  0  0
 18 38  1  0  0  0  0
 19 39  1  0  0  0  0
 19 40  1  0  0  0  0
 19 41  1  0  0  0  0
M  END
