 xtb: 6.7.1 (edcfbbe)
          04092505203D

 41 40  0     0  0            999 V2000
    3.2578    2.1435   -0.7967 C   0  0  0  0  0  0  0  0  0  0  0  0
    2.7476    2.3673    0.6112 C   0  0  0  0  0  0  0  0  0  0  0  0
    1.6095    1.5304    0.9369 O   0  0  0  0  0  0  0  0  0  0  0  0
    1.6439   -0.0442    1.0330 P   0  0  0  0  0  0  0  0  0  0  0  0
    0.2648   -0.6933    2.2650 S   0  0  0  0  0  0  0  0  0  0  0  0
    3.1552   -0.2700    1.4915 O   0  0  0  0  0  0  0  0  0  0  0  0
    3.8700   -1.5145    1.4270 C   0  0  0  0  0  0  0  0  0  0  0  0
    3.2305   -2.6076    2.2584 C   0  0  0  0  0  0  0  0  0  0  0  0
    1.6068   -0.8810   -0.9358 S   0  0  0  0  0  0  0  0  0  0  0  0
    0.1636   -1.9644   -0.8181 C   0  0  0  0  0  0  0  0  0  0  0  0
   -1.1905   -1.5300   -1.9600 S   0  0  0  0  0  0  0  0  0  0  0  0
   -2.1163    0.0181   -0.8812 P   0  0  0  0  0  0  0  0  0  0  0  0
   -3.6772    0.8690   -1.7003 S   0  0  0  0  0  0  0  0  0  0  0  0
   -0.9244    1.0221   -0.4987 O   0  0  0  0  0  0  0  0  0  0  0  0
   -0.6970    2.2027   -1.2895 C   0  0  0  0  0  0  0  0  0  0  0  0
   -0.2213    1.8695   -2.6902 C   0  0  0  0  0  0  0  0  0  0  0  0
   -2.3842   -0.7504    0.4782 O   0  0  0  0  0  0  0  0  0  0  0  0
   -3.3683   -0.3053    1.4329 C   0  0  0  0  0  0  0  0  0  0  0  0
   -3.0372    1.0555    2.0068 C   0  0  0  0  0  0  0  0  0  0  0  0
    3.5924    1.1146   -0.9193 H   0  0  0  0  0  0  0  0  0  0  0  0
    2.4800    2.3474   -1.5268 H   0  0  0  0  0  0  0  0  0  0  0  0
    4.0959    2.8099   -0.9764 H   0  0  0  0  0  0  0  0  0  0  0  0
    2.3618    3.3795    0.7447 H   0  0  0  0  0  0  0  0  0  0  0  0
    3.5317    2.1740    1.3452 H   0  0  0  0  0  0  0  0  0  0  0  0
    3.9418   -1.8173    0.3783 H   0  0  0  0  0  0  0  0  0  0  0  0
    4.8612   -1.2593    1.8062 H   0  0  0  0  0  0  0  0  0  0  0  0
    3.8673   -3.4864    2.2473 H   0  0  0  0  0  0  0  0  0  0  0  0
    3.0954   -2.2739    3.2844 H   0  0  0  0  0  0  0  0  0  0  0  0
    2.2543   -2.8717    1.8551 H   0  0  0  0  0  0  0  0  0  0  0  0
   -0.2080   -1.9456    0.2099 H   0  0  0  0  0  0  0  0  0  0  0  0
    0.4700   -2.9629   -1.1178 H   0  0  0  0  0  0  0  0  0  0  0  0
   -1.6322    2.7701   -1.3331 H   0  0  0  0  0  0  0  0  0  0  0  0
    0.0470    2.7595   -0.7193 H   0  0  0  0  0  0  0  0  0  0  0  0
   -1.0115    1.3481   -3.2312 H   0  0  0  0  0  0  0  0  0  0  0  0
    0.0150    2.7887   -3.2169 H   0  0  0  0  0  0  0  0  0  0  0  0
    0.6578    1.2295   -2.6608 H   0  0  0  0  0  0  0  0  0  0  0  0
   -4.3428   -0.2888    0.9348 H   0  0  0  0  0  0  0  0  0  0  0  0
   -3.3486   -1.0804    2.2000 H   0  0  0  0  0  0  0  0  0  0  0  0
   -3.7520    1.3013    2.7855 H   0  0  0  0  0  0  0  0  0  0  0  0
   -2.0336    1.0484    2.4263 H   0  0  0  0  0  0  0  0  0  0  0  0
   -3.0894    1.8115    1.2237 H   0  0  0  0  0  0  0  0  0  0  0  0
  1  2  1  0  0  0  0
  2  3  1  0  0  0  0
  3  4  2  0  0  0  0
  4  5  2  0  0  0  0
  4  6  2  0  0  0  0
  6  7  1  0  0  0  0
  7  8  1  0  0  0  0
  4  9  1  0  0  0  0
  9 10  1  0  0  0  0
 10 11  1  0  0  0  0
 11 12  1  0  0  0  0
 12 13  2  0  0  0  0
 12 14  1  0  0  0  0
 14 15  1  0  0  0  0
 15 16  1  0  0  0  0
 12 17  2  0  0  0  0
 17 18  1  0  0  0  0
 18 19  1  0  0  0  0
  1 20  1  0  0  0  0
  1 21  1  0  0  0  0
  1 22  1  0  0  0  0
  2 23  1  0  0  0  0
  2 24  1  0  0  0  0
  7 25  1  0  0  0  0
  7 26  1  0  0  0  0
  8 27  1  0  0  0  0
  8 28  1  0  0  0  0
  8 29  1  0  0  0  0
 10 30  1  0  0  0  0
 10 31  1  0  0  0  0
 15 32  1  0  0  0  0
 15 33  1  0  0  0  0
 16 34  1  0  0  0  0
 16 35  1  0  0  0  0
 16 36  1  0  0  0  0
 18 37  1  0  0  0  0
 18 38  1  0  0  0  0
 19 39  1  0  0  0  0
 19 40  1  0  0  0  0
 19 41  1  0  0  0  0
M  END
