 xtb: 6.7.1 (edcfbbe)
          04092505213D

 41 40  0     0  0            999 V2000
    5.2316    1.0245   -0.0600 C   0  0  0  0  0  0  0  0  0  0  0  0
    4.8124    0.6163    1.3352 C   0  0  0  0  0  0  0  0  0  0  0  0
    3.9118   -0.5196    1.3558 O   0  0  0  0  0  0  0  0  0  0  0  0
    2.5704   -0.6802    0.5534 P   0  0  0  0  0  0  0  0  0  0  0  0
    1.4578   -2.0471    1.4072 S   0  0  0  0  0  0  0  0  0  0  0  0
    3.1045   -0.9912   -0.9127 O   0  0  0  0  0  0  0  0  0  0  0  0
    2.3059   -1.0613   -2.1048 C   0  0  0  0  0  0  0  0  0  0  0  0
    1.5529   -2.3721   -2.2128 C   0  0  0  0  0  0  0  0  0  0  0  0
    1.7096    1.2772    0.4572 S   0  0  0  0  0  0  0  0  0  0  0  0
    0.0004    0.8164    0.7569 C   0  0  0  0  0  0  0  0  0  0  0  0
   -0.7721    0.1919   -0.7819 S   0  0  0  0  0  0  0  0  0  0  0  0
   -2.7790    0.4950   -0.1698 P   0  0  0  0  0  0  0  0  0  0  0  0
   -4.1793   -0.0355   -1.4303 S   0  0  0  0  0  0  0  0  0  0  0  0
   -2.8154    2.0088    0.3167 O   0  0  0  0  0  0  0  0  0  0  0  0
   -3.1795    3.0752   -0.5797 C   0  0  0  0  0  0  0  0  0  0  0  0
   -2.1227    3.3194   -1.6393 C   0  0  0  0  0  0  0  0  0  0  0  0
   -2.8405   -0.1479    1.2831 O   0  0  0  0  0  0  0  0  0  0  0  0
   -3.3068   -1.4929    1.4887 C   0  0  0  0  0  0  0  0  0  0  0  0
   -2.3902   -2.5254    0.8627 C   0  0  0  0  0  0  0  0  0  0  0  0
    4.3798    1.4180   -0.6113 H   0  0  0  0  0  0  0  0  0  0  0  0
    5.9893    1.7986    0.0136 H   0  0  0  0  0  0  0  0  0  0  0  0
    5.6399    0.1717   -0.5959 H   0  0  0  0  0  0  0  0  0  0  0  0
    4.3185    1.4438    1.8504 H   0  0  0  0  0  0  0  0  0  0  0  0
    5.6615    0.2664    1.9244 H   0  0  0  0  0  0  0  0  0  0  0  0
    1.6103   -0.2161   -2.1231 H   0  0  0  0  0  0  0  0  0  0  0  0
    3.0330   -0.9570   -2.9123 H   0  0  0  0  0  0  0  0  0  0  0  0
    2.2426   -3.2096   -2.1489 H   0  0  0  0  0  0  0  0  0  0  0  0
    0.8245   -2.4590   -1.4095 H   0  0  0  0  0  0  0  0  0  0  0  0
    1.0299   -2.4056   -3.1629 H   0  0  0  0  0  0  0  0  0  0  0  0
   -0.5308    1.7052    1.0881 H   0  0  0  0  0  0  0  0  0  0  0  0
   -0.0272    0.0262    1.5096 H   0  0  0  0  0  0  0  0  0  0  0  0
   -4.1381    2.8247   -1.0448 H   0  0  0  0  0  0  0  0  0  0  0  0
   -3.3012    3.9379    0.0770 H   0  0  0  0  0  0  0  0  0  0  0  0
   -2.4024    4.1877   -2.2273 H   0  0  0  0  0  0  0  0  0  0  0  0
   -1.1520    3.4955   -1.1816 H   0  0  0  0  0  0  0  0  0  0  0  0
   -2.0516    2.4554   -2.2995 H   0  0  0  0  0  0  0  0  0  0  0  0
   -3.3455   -1.5944    2.5741 H   0  0  0  0  0  0  0  0  0  0  0  0
   -4.3147   -1.5767    1.0701 H   0  0  0  0  0  0  0  0  0  0  0  0
   -1.3730   -2.4273    1.2384 H   0  0  0  0  0  0  0  0  0  0  0  0
   -2.7560   -3.5193    1.0995 H   0  0  0  0  0  0  0  0  0  0  0  0
   -2.3807   -2.4045   -0.2208 H   0  0  0  0  0  0  0  0  0  0  0  0
  1  2  1  0  0  0  0
  2  3  1  0  0  0  0
  3  4  2  0  0  0  0
  4  5  2  0  0  0  0
  4  6  2  0  0  0  0
  6  7  1  0  0  0  0
  7  8  1  0  0  0  0
  4  9  1  0  0  0  0
  9 10  1  0  0  0  0
 10 11  1  0  0  0  0
 11 12  1  0  0  0  0
 12 13  2  0  0  0  0
 12 14  2  0  0  0  0
 14 15  1  0  0  0  0
 15 16  1  0  0  0  0
 12 17  2  0  0  0  0
 17 18  1  0  0  0  0
 18 19  1  0  0  0  0
  1 20  1  0  0  0  0
  1 21  1  0  0  0  0
  1 22  1  0  0  0  0
  2 23  1  0  0  0  0
  2 24  1  0  0  0  0
  7 25  1  0  0  0  0
  7 26  1  0  0  0  0
  8 27  1  0  0  0  0
  8 28  1  0  0  0  0
  8 29  1  0  0  0  0
 10 30  1  0  0  0  0
 10 31  1  0  0  0  0
 15 32  1  0  0  0  0
 15 33  1  0  0  0  0
 16 34  1  0  0  0  0
 16 35  1  0  0  0  0
 16 36  1  0  0  0  0
 18 37  1  0  0  0  0
 18 38  1  0  0  0  0
 19 39  1  0  0  0  0
 19 40  1  0  0  0  0
 19 41  1  0  0  0  0
M  END
