 xtb: 6.7.1 (edcfbbe)
          04092505203D

 41 40  0     0  0            999 V2000
    4.0237    0.0789   -2.6341 C   0  0  0  0  0  0  0  0  0  0  0  0
    4.3027    0.7693   -1.3147 C   0  0  0  0  0  0  0  0  0  0  0  0
    3.7598    0.0402   -0.2017 O   0  0  0  0  0  0  0  0  0  0  0  0
    2.1979   -0.1118    0.0425 P   0  0  0  0  0  0  0  0  0  0  0  0
    1.1830    1.5284   -0.3501 S   0  0  0  0  0  0  0  0  0  0  0  0
    2.1296   -0.6462    1.5296 O   0  0  0  0  0  0  0  0  0  0  0  0
    2.0784    0.2215    2.6793 C   0  0  0  0  0  0  0  0  0  0  0  0
    3.3359    1.0510    2.8223 C   0  0  0  0  0  0  0  0  0  0  0  0
    1.7505   -1.9064   -0.9630 S   0  0  0  0  0  0  0  0  0  0  0  0
    0.0136   -2.1379   -0.5019 C   0  0  0  0  0  0  0  0  0  0  0  0
   -1.1638   -1.1949   -1.5355 S   0  0  0  0  0  0  0  0  0  0  0  0
   -2.0309    0.0828   -0.0938 P   0  0  0  0  0  0  0  0  0  0  0  0
   -1.3554   -0.0658    1.7462 S   0  0  0  0  0  0  0  0  0  0  0  0
   -3.5870   -0.2406   -0.2079 O   0  0  0  0  0  0  0  0  0  0  0  0
   -4.1466   -1.4504    0.3350 C   0  0  0  0  0  0  0  0  0  0  0  0
   -5.6559   -1.3168    0.3120 C   0  0  0  0  0  0  0  0  0  0  0  0
   -1.9797    1.4744   -0.8286 O   0  0  0  0  0  0  0  0  0  0  0  0
   -2.0694    2.7355   -0.1351 C   0  0  0  0  0  0  0  0  0  0  0  0
   -3.4148    2.9185    0.5333 C   0  0  0  0  0  0  0  0  0  0  0  0
    4.3547   -0.9559   -2.5960 H   0  0  0  0  0  0  0  0  0  0  0  0
    2.9542    0.0953   -2.8432 H   0  0  0  0  0  0  0  0  0  0  0  0
    4.5458    0.5982   -3.4313 H   0  0  0  0  0  0  0  0  0  0  0  0
    3.8751    1.7775   -1.3104 H   0  0  0  0  0  0  0  0  0  0  0  0
    5.3713    0.8168   -1.1010 H   0  0  0  0  0  0  0  0  0  0  0  0
    1.1936    0.8602    2.5929 H   0  0  0  0  0  0  0  0  0  0  0  0
    1.9441   -0.4672    3.5145 H   0  0  0  0  0  0  0  0  0  0  0  0
    3.2960    1.6035    3.7559 H   0  0  0  0  0  0  0  0  0  0  0  0
    4.2116    0.4074    2.8162 H   0  0  0  0  0  0  0  0  0  0  0  0
    3.4098    1.7569    1.9957 H   0  0  0  0  0  0  0  0  0  0  0  0
   -0.1293   -1.8560    0.5448 H   0  0  0  0  0  0  0  0  0  0  0  0
   -0.1905   -3.1929   -0.6615 H   0  0  0  0  0  0  0  0  0  0  0  0
   -3.8118   -2.2905   -0.2809 H   0  0  0  0  0  0  0  0  0  0  0  0
   -3.7697   -1.5817    1.3552 H   0  0  0  0  0  0  0  0  0  0  0  0
   -6.1002   -2.2303    0.6931 H   0  0  0  0  0  0  0  0  0  0  0  0
   -5.9673   -0.4803    0.9310 H   0  0  0  0  0  0  0  0  0  0  0  0
   -5.9951   -1.1469   -0.7056 H   0  0  0  0  0  0  0  0  0  0  0  0
   -1.2531    2.7878    0.5927 H   0  0  0  0  0  0  0  0  0  0  0  0
   -1.8960    3.4716   -0.9211 H   0  0  0  0  0  0  0  0  0  0  0  0
   -4.2127    2.7962   -0.1944 H   0  0  0  0  0  0  0  0  0  0  0  0
   -3.5396    2.1769    1.3220 H   0  0  0  0  0  0  0  0  0  0  0  0
   -3.4670    3.9111    0.9694 H   0  0  0  0  0  0  0  0  0  0  0  0
  1  2  1  0  0  0  0
  2  3  1  0  0  0  0
  3  4  2  0  0  0  0
  4  5  2  0  0  0  0
  4  6  2  0  0  0  0
  6  7  1  0  0  0  0
  7  8  1  0  0  0  0
  4  9  1  0  0  0  0
  9 10  1  0  0  0  0
 10 11  1  0  0  0  0
 11 12  1  0  0  0  0
 12 13  2  0  0  0  0
 12 14  2  0  0  0  0
 14 15  1  0  0  0  0
 15 16  1  0  0  0  0
 12 17  2  0  0  0  0
 17 18  1  0  0  0  0
 18 19  1  0  0  0  0
  1 20  1  0  0  0  0
  1 21  1  0  0  0  0
  1 22  1  0  0  0  0
  2 23  1  0  0  0  0
  2 24  1  0  0  0  0
  7 25  1  0  0  0  0
  7 26  1  0  0  0  0
  8 27  1  0  0  0  0
  8 28  1  0  0  0  0
  8 29  1  0  0  0  0
 10 30  1  0  0  0  0
 10 31  1  0  0  0  0
 15 32  1  0  0  0  0
 15 33  1  0  0  0  0
 16 34  1  0  0  0  0
 16 35  1  0  0  0  0
 16 36  1  0  0  0  0
 18 37  1  0  0  0  0
 18 38  1  0  0  0  0
 19 39  1  0  0  0  0
 19 40  1  0  0  0  0
 19 41  1  0  0  0  0
M  END
