 xtb: 6.7.1 (edcfbbe)
          04092505213D

 41 40  0     0  0            999 V2000
    4.1571   -0.3784   -1.9565 C   0  0  0  0  0  0  0  0  0  0  0  0
    4.3556    0.5841   -0.8042 C   0  0  0  0  0  0  0  0  0  0  0  0
    3.1248    0.8827   -0.0976 O   0  0  0  0  0  0  0  0  0  0  0  0
    2.2622   -0.1539    0.7260 P   0  0  0  0  0  0  0  0  0  0  0  0
    1.3738    0.6769    2.2625 S   0  0  0  0  0  0  0  0  0  0  0  0
    3.3153   -1.2819    1.0991 O   0  0  0  0  0  0  0  0  0  0  0  0
    3.0784   -2.2217    2.1619 C   0  0  0  0  0  0  0  0  0  0  0  0
    1.9464   -3.1716    1.8311 C   0  0  0  0  0  0  0  0  0  0  0  0
    0.9760   -1.0856   -0.7128 S   0  0  0  0  0  0  0  0  0  0  0  0
    0.3852    0.4198   -1.5283 C   0  0  0  0  0  0  0  0  0  0  0  0
   -0.6807    1.4615   -0.4998 S   0  0  0  0  0  0  0  0  0  0  0  0
   -2.5205    0.3930   -0.7349 P   0  0  0  0  0  0  0  0  0  0  0  0
   -2.5844   -0.8482   -2.2414 S   0  0  0  0  0  0  0  0  0  0  0  0
   -3.6417    1.4847   -0.8896 O   0  0  0  0  0  0  0  0  0  0  0  0
   -3.9015    2.5560    0.0529 C   0  0  0  0  0  0  0  0  0  0  0  0
   -3.3368    3.8648   -0.4631 C   0  0  0  0  0  0  0  0  0  0  0  0
   -2.8589   -0.1609    0.7222 O   0  0  0  0  0  0  0  0  0  0  0  0
   -2.0543   -1.0585    1.5016 C   0  0  0  0  0  0  0  0  0  0  0  0
   -2.0492   -2.4647    0.9365 C   0  0  0  0  0  0  0  0  0  0  0  0
    3.8188   -1.3446   -1.5892 H   0  0  0  0  0  0  0  0  0  0  0  0
    3.4262    0.0059   -2.6639 H   0  0  0  0  0  0  0  0  0  0  0  0
    5.1054   -0.5095   -2.4688 H   0  0  0  0  0  0  0  0  0  0  0  0
    4.6856    1.5652   -1.1498 H   0  0  0  0  0  0  0  0  0  0  0  0
    5.0713    0.1832   -0.0848 H   0  0  0  0  0  0  0  0  0  0  0  0
    4.0302   -2.7444    2.2657 H   0  0  0  0  0  0  0  0  0  0  0  0
    2.8565   -1.6618    3.0758 H   0  0  0  0  0  0  0  0  0  0  0  0
    2.1262   -3.6636    0.8788 H   0  0  0  0  0  0  0  0  0  0  0  0
    1.8618   -3.9185    2.6137 H   0  0  0  0  0  0  0  0  0  0  0  0
    1.0106   -2.6181    1.7668 H   0  0  0  0  0  0  0  0  0  0  0  0
   -0.1812    0.0827   -2.3981 H   0  0  0  0  0  0  0  0  0  0  0  0
    1.2299    1.0424   -1.8122 H   0  0  0  0  0  0  0  0  0  0  0  0
   -4.9897    2.5958    0.1240 H   0  0  0  0  0  0  0  0  0  0  0  0
   -3.4793    2.2930    1.0244 H   0  0  0  0  0  0  0  0  0  0  0  0
   -3.7141    4.0626   -1.4626 H   0  0  0  0  0  0  0  0  0  0  0  0
   -3.6412    4.6675    0.2011 H   0  0  0  0  0  0  0  0  0  0  0  0
   -2.2503    3.8267   -0.4975 H   0  0  0  0  0  0  0  0  0  0  0  0
   -1.0398   -0.6517    1.5795 H   0  0  0  0  0  0  0  0  0  0  0  0
   -2.5206   -1.0303    2.4885 H   0  0  0  0  0  0  0  0  0  0  0  0
   -1.5537   -3.1303    1.6362 H   0  0  0  0  0  0  0  0  0  0  0  0
   -3.0702   -2.8039    0.7810 H   0  0  0  0  0  0  0  0  0  0  0  0
   -1.5247   -2.4961   -0.0167 H   0  0  0  0  0  0  0  0  0  0  0  0
  1  2  1  0  0  0  0
  2  3  1  0  0  0  0
  3  4  2  0  0  0  0
  4  5  2  0  0  0  0
  4  6  2  0  0  0  0
  6  7  1  0  0  0  0
  7  8  1  0  0  0  0
  4  9  1  0  0  0  0
  9 10  1  0  0  0  0
 10 11  1  0  0  0  0
 11 12  1  0  0  0  0
 12 13  2  0  0  0  0
 12 14  2  0  0  0  0
 14 15  1  0  0  0  0
 15 16  1  0  0  0  0
 12 17  2  0  0  0  0
 17 18  1  0  0  0  0
 18 19  1  0  0  0  0
  1 20  1  0  0  0  0
  1 21  1  0  0  0  0
  1 22  1  0  0  0  0
  2 23  1  0  0  0  0
  2 24  1  0  0  0  0
  7 25  1  0  0  0  0
  7 26  1  0  0  0  0
  8 27  1  0  0  0  0
  8 28  1  0  0  0  0
  8 29  1  0  0  0  0
 10 30  1  0  0  0  0
 10 31  1  0  0  0  0
 15 32  1  0  0  0  0
 15 33  1  0  0  0  0
 16 34  1  0  0  0  0
 16 35  1  0  0  0  0
 16 36  1  0  0  0  0
 18 37  1  0  0  0  0
 18 38  1  0  0  0  0
 19 39  1  0  0  0  0
 19 40  1  0  0  0  0
 19 41  1  0  0  0  0
M  END
