 xtb: 6.7.1 (edcfbbe)
          04092505213D

 41 40  0     0  0            999 V2000
    4.3116   -0.1694   -2.1805 C   0  0  0  0  0  0  0  0  0  0  0  0
    4.4830   -0.4696   -0.7052 C   0  0  0  0  0  0  0  0  0  0  0  0
    3.2232   -0.7196   -0.0601 O   0  0  0  0  0  0  0  0  0  0  0  0
    2.2003    0.4645    0.2558 P   0  0  0  0  0  0  0  0  0  0  0  0
    3.0200    2.1891    0.6909 S   0  0  0  0  0  0  0  0  0  0  0  0
    1.2535   -0.2030    1.3340 O   0  0  0  0  0  0  0  0  0  0  0  0
    1.7058   -1.0139    2.4403 C   0  0  0  0  0  0  0  0  0  0  0  0
    2.6414   -0.2582    3.3597 C   0  0  0  0  0  0  0  0  0  0  0  0
    0.8605    0.5646   -1.3767 S   0  0  0  0  0  0  0  0  0  0  0  0
    0.4200   -1.1891   -1.5586 C   0  0  0  0  0  0  0  0  0  0  0  0
   -0.6869   -1.8349   -0.2656 S   0  0  0  0  0  0  0  0  0  0  0  0
   -2.1071   -0.2846   -0.3013 P   0  0  0  0  0  0  0  0  0  0  0  0
   -2.6168    0.4139   -2.0655 S   0  0  0  0  0  0  0  0  0  0  0  0
   -1.4937    0.7432    0.7364 O   0  0  0  0  0  0  0  0  0  0  0  0
   -1.7650    2.1549    0.6687 C   0  0  0  0  0  0  0  0  0  0  0  0
   -3.1848    2.4635    1.0929 C   0  0  0  0  0  0  0  0  0  0  0  0
   -3.3046   -0.8915    0.5466 O   0  0  0  0  0  0  0  0  0  0  0  0
   -4.2311   -1.8384   -0.0255 C   0  0  0  0  0  0  0  0  0  0  0  0
   -5.4748   -1.8567    0.8399 C   0  0  0  0  0  0  0  0  0  0  0  0
    5.2885   -0.0398   -2.6351 H   0  0  0  0  0  0  0  0  0  0  0  0
    3.7888   -0.9801   -2.6812 H   0  0  0  0  0  0  0  0  0  0  0  0
    3.7405    0.7500   -2.3070 H   0  0  0  0  0  0  0  0  0  0  0  0
    4.9697    0.3706   -0.1997 H   0  0  0  0  0  0  0  0  0  0  0  0
    5.0525   -1.3854   -0.5412 H   0  0  0  0  0  0  0  0  0  0  0  0
    0.7782   -1.2902    2.9447 H   0  0  0  0  0  0  0  0  0  0  0  0
    2.1866   -1.9072    2.0361 H   0  0  0  0  0  0  0  0  0  0  0  0
    2.9029   -0.8872    4.2049 H   0  0  0  0  0  0  0  0  0  0  0  0
    3.5496    0.0187    2.8256 H   0  0  0  0  0  0  0  0  0  0  0  0
    2.1665    0.6514    3.7202 H   0  0  0  0  0  0  0  0  0  0  0  0
    1.3156   -1.8048   -1.5322 H   0  0  0  0  0  0  0  0  0  0  0  0
   -0.0809   -1.2553   -2.5231 H   0  0  0  0  0  0  0  0  0  0  0  0
   -1.0277    2.6003    1.3395 H   0  0  0  0  0  0  0  0  0  0  0  0
   -1.5789    2.4981   -0.3553 H   0  0  0  0  0  0  0  0  0  0  0  0
   -3.3324    3.5388    1.1051 H   0  0  0  0  0  0  0  0  0  0  0  0
   -3.8819    2.0162    0.3850 H   0  0  0  0  0  0  0  0  0  0  0  0
   -3.3767    2.0570    2.0823 H   0  0  0  0  0  0  0  0  0  0  0  0
   -4.4582   -1.5267   -1.0506 H   0  0  0  0  0  0  0  0  0  0  0  0
   -3.7458   -2.8177   -0.0480 H   0  0  0  0  0  0  0  0  0  0  0  0
   -5.9462   -0.8781    0.8406 H   0  0  0  0  0  0  0  0  0  0  0  0
   -6.1713   -2.5890    0.4453 H   0  0  0  0  0  0  0  0  0  0  0  0
   -5.2117   -2.1214    1.8598 H   0  0  0  0  0  0  0  0  0  0  0  0
  1  2  1  0  0  0  0
  2  3  1  0  0  0  0
  3  4  2  0  0  0  0
  4  5  2  0  0  0  0
  4  6  2  0  0  0  0
  6  7  1  0  0  0  0
  7  8  1  0  0  0  0
  4  9  1  0  0  0  0
  9 10  1  0  0  0  0
 10 11  1  0  0  0  0
 11 12  1  0  0  0  0
 12 13  2  0  0  0  0
 12 14  2  0  0  0  0
 14 15  1  0  0  0  0
 15 16  1  0  0  0  0
 12 17  2  0  0  0  0
 17 18  1  0  0  0  0
 18 19  1  0  0  0  0
  1 20  1  0  0  0  0
  1 21  1  0  0  0  0
  1 22  1  0  0  0  0
  2 23  1  0  0  0  0
  2 24  1  0  0  0  0
  7 25  1  0  0  0  0
  7 26  1  0  0  0  0
  8 27  1  0  0  0  0
  8 28  1  0  0  0  0
  8 29  1  0  0  0  0
 10 30  1  0  0  0  0
 10 31  1  0  0  0  0
 15 32  1  0  0  0  0
 15 33  1  0  0  0  0
 16 34  1  0  0  0  0
 16 35  1  0  0  0  0
 16 36  1  0  0  0  0
 18 37  1  0  0  0  0
 18 38  1  0  0  0  0
 19 39  1  0  0  0  0
 19 40  1  0  0  0  0
 19 41  1  0  0  0  0
M  END
