 xtb: 6.7.1 (edcfbbe)
          04092505213D

 41 40  0     0  0            999 V2000
    5.8641    0.0665   -0.9108 C   0  0  0  0  0  0  0  0  0  0  0  0
    4.9549   -0.9759   -1.5284 C   0  0  0  0  0  0  0  0  0  0  0  0
    3.5699   -0.5668   -1.5271 O   0  0  0  0  0  0  0  0  0  0  0  0
    2.7275   -0.2587   -0.2226 P   0  0  0  0  0  0  0  0  0  0  0  0
    2.9221    1.5096    0.6166 S   0  0  0  0  0  0  0  0  0  0  0  0
    3.1480   -1.4774    0.7121 O   0  0  0  0  0  0  0  0  0  0  0  0
    2.8745   -1.5031    2.1218 C   0  0  0  0  0  0  0  0  0  0  0  0
    1.4205   -1.8206    2.4044 C   0  0  0  0  0  0  0  0  0  0  0  0
    0.8222   -0.6839   -1.0463 S   0  0  0  0  0  0  0  0  0  0  0  0
   -0.0797    0.8135   -0.5547 C   0  0  0  0  0  0  0  0  0  0  0  0
   -1.1118    0.6106    0.9241 S   0  0  0  0  0  0  0  0  0  0  0  0
   -3.0189    0.3191    0.0087 P   0  0  0  0  0  0  0  0  0  0  0  0
   -3.0803    0.5157   -1.9468 S   0  0  0  0  0  0  0  0  0  0  0  0
   -3.9971    1.2512    0.8339 O   0  0  0  0  0  0  0  0  0  0  0  0
   -4.2525    2.6173    0.4649 C   0  0  0  0  0  0  0  0  0  0  0  0
   -3.0355    3.5044    0.6414 C   0  0  0  0  0  0  0  0  0  0  0  0
   -3.5837   -1.0387    0.5912 O   0  0  0  0  0  0  0  0  0  0  0  0
   -3.3425   -2.3183   -0.0190 C   0  0  0  0  0  0  0  0  0  0  0  0
   -1.9698   -2.8619    0.3254 C   0  0  0  0  0  0  0  0  0  0  0  0
    5.7379    1.0234   -1.4121 H   0  0  0  0  0  0  0  0  0  0  0  0
    5.6251    0.1967    0.1440 H   0  0  0  0  0  0  0  0  0  0  0  0
    6.8970   -0.2541   -1.0033 H   0  0  0  0  0  0  0  0  0  0  0  0
    5.0330   -1.9275   -0.9984 H   0  0  0  0  0  0  0  0  0  0  0  0
    5.1740   -1.1210   -2.5875 H   0  0  0  0  0  0  0  0  0  0  0  0
    3.5371   -2.2805    2.5057 H   0  0  0  0  0  0  0  0  0  0  0  0
    3.1504   -0.5334    2.5495 H   0  0  0  0  0  0  0  0  0  0  0  0
    1.1251   -2.7242    1.8772 H   0  0  0  0  0  0  0  0  0  0  0  0
    1.2847   -1.9641    3.4713 H   0  0  0  0  0  0  0  0  0  0  0  0
    0.7856   -0.9968    2.0800 H   0  0  0  0  0  0  0  0  0  0  0  0
   -0.7232    1.0830   -1.3940 H   0  0  0  0  0  0  0  0  0  0  0  0
    0.6475    1.5966   -0.3328 H   0  0  0  0  0  0  0  0  0  0  0  0
   -4.5963    2.6384   -0.5745 H   0  0  0  0  0  0  0  0  0  0  0  0
   -5.0650    2.9172    1.1282 H   0  0  0  0  0  0  0  0  0  0  0  0
   -2.6242    3.3882    1.6411 H   0  0  0  0  0  0  0  0  0  0  0  0
   -2.2695    3.2420   -0.0874 H   0  0  0  0  0  0  0  0  0  0  0  0
   -3.3223    4.5400    0.4884 H   0  0  0  0  0  0  0  0  0  0  0  0
   -4.1342   -2.9521    0.3841 H   0  0  0  0  0  0  0  0  0  0  0  0
   -3.4648   -2.2219   -1.1032 H   0  0  0  0  0  0  0  0  0  0  0  0
   -1.8983   -3.8900   -0.0147 H   0  0  0  0  0  0  0  0  0  0  0  0
   -1.1941   -2.2770   -0.1667 H   0  0  0  0  0  0  0  0  0  0  0  0
   -1.8152   -2.8254    1.4007 H   0  0  0  0  0  0  0  0  0  0  0  0
  1  2  1  0  0  0  0
  2  3  1  0  0  0  0
  3  4  2  0  0  0  0
  4  5  2  0  0  0  0
  4  6  2  0  0  0  0
  6  7  1  0  0  0  0
  7  8  1  0  0  0  0
  4  9  1  0  0  0  0
  9 10  1  0  0  0  0
 10 11  1  0  0  0  0
 11 12  1  0  0  0  0
 12 13  2  0  0  0  0
 12 14  2  0  0  0  0
 14 15  1  0  0  0  0
 15 16  1  0  0  0  0
 12 17  2  0  0  0  0
 17 18  1  0  0  0  0
 18 19  1  0  0  0  0
  1 20  1  0  0  0  0
  1 21  1  0  0  0  0
  1 22  1  0  0  0  0
  2 23  1  0  0  0  0
  2 24  1  0  0  0  0
  7 25  1  0  0  0  0
  7 26  1  0  0  0  0
  8 27  1  0  0  0  0
  8 28  1  0  0  0  0
  8 29  1  0  0  0  0
 10 30  1  0  0  0  0
 10 31  1  0  0  0  0
 15 32  1  0  0  0  0
 15 33  1  0  0  0  0
 16 34  1  0  0  0  0
 16 35  1  0  0  0  0
 16 36  1  0  0  0  0
 18 37  1  0  0  0  0
 18 38  1  0  0  0  0
 19 39  1  0  0  0  0
 19 40  1  0  0  0  0
 19 41  1  0  0  0  0
M  END
