 xtb: 6.7.1 (edcfbbe)
          04092507313D

 38 37  0     0  0            999 V2000
    2.9159   -4.0459   -0.1669 C   0  0  0  0  0  0  0  0  0  0  0  0
    2.7439   -2.6072    0.2761 C   0  0  0  0  0  0  0  0  0  0  0  0
    2.2837   -1.8468   -0.8584 O   0  0  0  0  0  0  0  0  0  0  0  0
    2.1209   -0.5539   -0.7177 C   0  0  0  0  0  0  0  0  0  0  0  0
    2.3240    0.0640    0.3102 O   0  0  0  0  0  0  0  0  0  0  0  0
    1.6592    0.1173   -1.9970 C   0  0  0  0  0  0  0  0  0  0  0  0
    0.4187    0.9724   -1.7221 C   0  0  0  0  0  0  0  0  0  0  0  0
    0.2618    1.6762   -2.5425 H   0  0  0  0  0  0  0  0  0  0  0  0
    0.5606    1.7388   -0.4212 C   0  0  0  0  0  0  0  0  0  0  0  0
   -0.1775    1.5298    0.5288 O   0  0  0  0  0  0  0  0  0  0  0  0
    1.4886    2.6433   -0.4720 O   0  0  0  0  0  0  0  0  0  0  0  0
    1.7764    3.4053    0.7221 C   0  0  0  0  0  0  0  0  0  0  0  0
    0.7697    4.5259    0.9194 C   0  0  0  0  0  0  0  0  0  0  0  0
   -1.1042   -0.0298   -1.6396 S   0  0  0  0  0  0  0  0  0  0  0  0
   -1.4957   -0.4172    0.4072 P   0  0  0  0  0  0  0  0  0  0  0  0
   -0.3246   -1.1382    1.8025 S   0  0  0  0  0  0  0  0  0  0  0  0
   -2.5517    0.6252    1.0124 O   0  0  0  0  0  0  0  0  0  0  0  0
   -3.6046    1.1855    0.2116 C   0  0  0  0  0  0  0  0  0  0  0  0
   -2.4733   -1.6142   -0.1302 O   0  0  0  0  0  0  0  0  0  0  0  0
   -3.1573   -2.4749    0.7765 C   0  0  0  0  0  0  0  0  0  0  0  0
    1.9662   -4.4408   -0.5147 H   0  0  0  0  0  0  0  0  0  0  0  0
    3.6405   -4.1036   -0.9736 H   0  0  0  0  0  0  0  0  0  0  0  0
    3.2624   -4.6376    0.6735 H   0  0  0  0  0  0  0  0  0  0  0  0
    3.6839   -2.1673    0.6234 H   0  0  0  0  0  0  0  0  0  0  0  0
    2.0035   -2.5083    1.0776 H   0  0  0  0  0  0  0  0  0  0  0  0
    1.4416   -0.6341   -2.7541 H   0  0  0  0  0  0  0  0  0  0  0  0
    2.4674    0.7688   -2.3361 H   0  0  0  0  0  0  0  0  0  0  0  0
    1.7785    2.7168    1.5716 H   0  0  0  0  0  0  0  0  0  0  0  0
    2.7797    3.7924    0.5465 H   0  0  0  0  0  0  0  0  0  0  0  0
    1.0694    5.1241    1.7734 H   0  0  0  0  0  0  0  0  0  0  0  0
    0.7320    5.1563    0.0353 H   0  0  0  0  0  0  0  0  0  0  0  0
   -0.2191    4.1151    1.1110 H   0  0  0  0  0  0  0  0  0  0  0  0
   -3.2353    2.0725   -0.3022 H   0  0  0  0  0  0  0  0  0  0  0  0
   -4.3934    1.4520    0.9113 H   0  0  0  0  0  0  0  0  0  0  0  0
   -3.9630    0.4572   -0.5176 H   0  0  0  0  0  0  0  0  0  0  0  0
   -3.9372   -1.9289    1.3095 H   0  0  0  0  0  0  0  0  0  0  0  0
   -2.4524   -2.8933    1.4981 H   0  0  0  0  0  0  0  0  0  0  0  0
   -3.5895   -3.2626    0.1643 H   0  0  0  0  0  0  0  0  0  0  0  0
  1  2  1  0  0  0  0
  2  3  1  0  0  0  0
  3  4  4  0  0  0  0
  4  5  2  0  0  0  0
  4  6  1  0  0  0  0
  6  7  1  0  0  0  0
  7  8  1  0  0  0  0
  7  9  1  0  0  0  0
  9 10  2  0  0  0  0
  9 11  4  0  0  0  0
 11 12  1  0  0  0  0
 12 13  1  0  0  0  0
  7 14  1  0  0  0  0
 14 15  1  0  0  0  0
 15 16  2  0  0  0  0
 15 17  1  0  0  0  0
 17 18  1  0  0  0  0
 15 19  1  0  0  0  0
 19 20  1  0  0  0  0
  1 21  1  0  0  0  0
  1 22  1  0  0  0  0
  1 23  1  0  0  0  0
  2 24  1  0  0  0  0
  2 25  1  0  0  0  0
  6 26  1  0  0  0  0
  6 27  1  0  0  0  0
 12 28  1  0  0  0  0
 12 29  1  0  0  0  0
 13 30  1  0  0  0  0
 13 31  1  0  0  0  0
 13 32  1  0  0  0  0
 18 33  1  0  0  0  0
 18 34  1  0  0  0  0
 18 35  1  0  0  0  0
 20 36  1  0  0  0  0
 20 37  1  0  0  0  0
 20 38  1  0  0  0  0
M  END
