 xtb: 6.7.1 (edcfbbe)
          04092505213D

 41 40  0     0  0            999 V2000
    3.8277    1.0035   -2.2986 C   0  0  0  0  0  0  0  0  0  0  0  0
    4.3299    1.0010   -0.8687 C   0  0  0  0  0  0  0  0  0  0  0  0
    3.7464   -0.0627   -0.1034 O   0  0  0  0  0  0  0  0  0  0  0  0
    2.2135   -0.0600    0.3294 P   0  0  0  0  0  0  0  0  0  0  0  0
    1.5832    1.7100    0.8975 S   0  0  0  0  0  0  0  0  0  0  0  0
    2.1677   -1.2161    1.4062 O   0  0  0  0  0  0  0  0  0  0  0  0
    2.2589   -0.9442    2.8222 C   0  0  0  0  0  0  0  0  0  0  0  0
    3.6521   -0.5013    3.2147 C   0  0  0  0  0  0  0  0  0  0  0  0
    1.2442   -1.0324   -1.2859 S   0  0  0  0  0  0  0  0  0  0  0  0
   -0.0605   -1.9317   -0.3886 C   0  0  0  0  0  0  0  0  0  0  0  0
   -1.0192   -0.9207    0.7595 S   0  0  0  0  0  0  0  0  0  0  0  0
   -2.2306    0.1668   -0.6324 P   0  0  0  0  0  0  0  0  0  0  0  0
   -2.0689   -0.4471   -2.4849 S   0  0  0  0  0  0  0  0  0  0  0  0
   -1.8730    1.6947   -0.5172 O   0  0  0  0  0  0  0  0  0  0  0  0
   -2.3412    2.5997    0.5142 C   0  0  0  0  0  0  0  0  0  0  0  0
   -1.9440    2.1659    1.9086 C   0  0  0  0  0  0  0  0  0  0  0  0
   -3.6746    0.1290    0.0342 O   0  0  0  0  0  0  0  0  0  0  0  0
   -4.4014   -1.0783    0.3290 C   0  0  0  0  0  0  0  0  0  0  0  0
   -5.0930   -1.6412   -0.8969 C   0  0  0  0  0  0  0  0  0  0  0  0
    4.0036    0.0370   -2.7640 H   0  0  0  0  0  0  0  0  0  0  0  0
    2.7555    1.2045   -2.3157 H   0  0  0  0  0  0  0  0  0  0  0  0
    4.3391    1.7764   -2.8633 H   0  0  0  0  0  0  0  0  0  0  0  0
    4.0972    1.9524   -0.3774 H   0  0  0  0  0  0  0  0  0  0  0  0
    5.4025    0.8093   -0.8178 H   0  0  0  0  0  0  0  0  0  0  0  0
    1.5202   -0.1775    3.0760 H   0  0  0  0  0  0  0  0  0  0  0  0
    1.9849   -1.8915    3.2876 H   0  0  0  0  0  0  0  0  0  0  0  0
    3.7064   -0.3972    4.2938 H   0  0  0  0  0  0  0  0  0  0  0  0
    4.3864   -1.2300    2.8818 H   0  0  0  0  0  0  0  0  0  0  0  0
    3.8769    0.4599    2.7542 H   0  0  0  0  0  0  0  0  0  0  0  0
    0.3888   -2.7266    0.2004 H   0  0  0  0  0  0  0  0  0  0  0  0
   -0.7141   -2.3243   -1.1680 H   0  0  0  0  0  0  0  0  0  0  0  0
   -1.8697    3.5458    0.2444 H   0  0  0  0  0  0  0  0  0  0  0  0
   -3.4259    2.6785    0.4204 H   0  0  0  0  0  0  0  0  0  0  0  0
   -2.2959    2.9054    2.6208 H   0  0  0  0  0  0  0  0  0  0  0  0
   -2.3855    1.2005    2.1499 H   0  0  0  0  0  0  0  0  0  0  0  0
   -0.8620    2.0894    1.9845 H   0  0  0  0  0  0  0  0  0  0  0  0
   -3.7125   -1.8082    0.7641 H   0  0  0  0  0  0  0  0  0  0  0  0
   -5.1281   -0.7677    1.0825 H   0  0  0  0  0  0  0  0  0  0  0  0
   -5.7474   -0.8923   -1.3350 H   0  0  0  0  0  0  0  0  0  0  0  0
   -4.3622   -1.9389   -1.6453 H   0  0  0  0  0  0  0  0  0  0  0  0
   -5.6808   -2.5068   -0.6088 H   0  0  0  0  0  0  0  0  0  0  0  0
  1  2  1  0  0  0  0
  2  3  1  0  0  0  0
  3  4  2  0  0  0  0
  4  5  2  0  0  0  0
  4  6  2  0  0  0  0
  6  7  1  0  0  0  0
  7  8  1  0  0  0  0
  4  9  1  0  0  0  0
  9 10  1  0  0  0  0
 10 11  1  0  0  0  0
 11 12  1  0  0  0  0
 12 13  2  0  0  0  0
 12 14  2  0  0  0  0
 14 15  1  0  0  0  0
 15 16  1  0  0  0  0
 12 17  2  0  0  0  0
 17 18  1  0  0  0  0
 18 19  1  0  0  0  0
  1 20  1  0  0  0  0
  1 21  1  0  0  0  0
  1 22  1  0  0  0  0
  2 23  1  0  0  0  0
  2 24  1  0  0  0  0
  7 25  1  0  0  0  0
  7 26  1  0  0  0  0
  8 27  1  0  0  0  0
  8 28  1  0  0  0  0
  8 29  1  0  0  0  0
 10 30  1  0  0  0  0
 10 31  1  0  0  0  0
 15 32  1  0  0  0  0
 15 33  1  0  0  0  0
 16 34  1  0  0  0  0
 16 35  1  0  0  0  0
 16 36  1  0  0  0  0
 18 37  1  0  0  0  0
 18 38  1  0  0  0  0
 19 39  1  0  0  0  0
 19 40  1  0  0  0  0
 19 41  1  0  0  0  0
M  END
