 xtb: 6.7.1 (edcfbbe)
          04092507313D

 38 37  0     0  0            999 V2000
    4.3126   -3.8064   -1.2990 C   0  0  0  0  0  0  0  0  0  0  0  0
    4.0564   -2.5248   -0.5286 C   0  0  0  0  0  0  0  0  0  0  0  0
    3.2274   -1.6667   -1.3392 O   0  0  0  0  0  0  0  0  0  0  0  0
    2.3665   -0.8698   -0.7554 C   0  0  0  0  0  0  0  0  0  0  0  0
    2.2070   -0.7802    0.4468 O   0  0  0  0  0  0  0  0  0  0  0  0
    1.5858   -0.0437   -1.7559 C   0  0  0  0  0  0  0  0  0  0  0  0
    0.3267    0.4928   -1.0922 C   0  0  0  0  0  0  0  0  0  0  0  0
   -0.1642    1.2428   -1.7195 H   0  0  0  0  0  0  0  0  0  0  0  0
    0.6263    1.1305    0.2532 C   0  0  0  0  0  0  0  0  0  0  0  0
   -0.0479    0.9076    1.2406 O   0  0  0  0  0  0  0  0  0  0  0  0
    1.5890    2.0099    0.1720 O   0  0  0  0  0  0  0  0  0  0  0  0
    1.9730    2.7242    1.3663 C   0  0  0  0  0  0  0  0  0  0  0  0
    3.1632    2.0472    2.0252 C   0  0  0  0  0  0  0  0  0  0  0  0
   -0.8679   -0.8564   -0.7993 S   0  0  0  0  0  0  0  0  0  0  0  0
   -2.3444    0.2323    0.2652 P   0  0  0  0  0  0  0  0  0  0  0  0
   -2.5033    2.1443   -0.1237 S   0  0  0  0  0  0  0  0  0  0  0  0
   -3.6525   -0.5812   -0.2124 O   0  0  0  0  0  0  0  0  0  0  0  0
   -4.1349   -0.5005   -1.5559 C   0  0  0  0  0  0  0  0  0  0  0  0
   -2.4092   -0.1500    1.7980 O   0  0  0  0  0  0  0  0  0  0  0  0
   -2.1117   -1.4721    2.2802 C   0  0  0  0  0  0  0  0  0  0  0  0
    4.7844   -3.5777   -2.2497 H   0  0  0  0  0  0  0  0  0  0  0  0
    4.9672   -4.4479   -0.7186 H   0  0  0  0  0  0  0  0  0  0  0  0
    3.3778   -4.3266   -1.4869 H   0  0  0  0  0  0  0  0  0  0  0  0
    4.9883   -1.9879   -0.3305 H   0  0  0  0  0  0  0  0  0  0  0  0
    3.5436   -2.7106    0.4197 H   0  0  0  0  0  0  0  0  0  0  0  0
    1.3444   -0.6519   -2.6265 H   0  0  0  0  0  0  0  0  0  0  0  0
    2.2140    0.7926   -2.0701 H   0  0  0  0  0  0  0  0  0  0  0  0
    2.2208    3.7277    1.0187 H   0  0  0  0  0  0  0  0  0  0  0  0
    1.1128    2.7578    2.0408 H   0  0  0  0  0  0  0  0  0  0  0  0
    4.0206    2.0628    1.3586 H   0  0  0  0  0  0  0  0  0  0  0  0
    3.4105    2.5690    2.9436 H   0  0  0  0  0  0  0  0  0  0  0  0
    2.9167    1.0126    2.2552 H   0  0  0  0  0  0  0  0  0  0  0  0
   -5.1297   -0.9380   -1.5368 H   0  0  0  0  0  0  0  0  0  0  0  0
   -3.4778   -1.0622   -2.2198 H   0  0  0  0  0  0  0  0  0  0  0  0
   -4.1834    0.5430   -1.8723 H   0  0  0  0  0  0  0  0  0  0  0  0
   -2.4215   -1.4693    3.3220 H   0  0  0  0  0  0  0  0  0  0  0  0
   -1.0389   -1.6513    2.2015 H   0  0  0  0  0  0  0  0  0  0  0  0
   -2.6663   -2.2167    1.7108 H   0  0  0  0  0  0  0  0  0  0  0  0
  1  2  1  0  0  0  0
  2  3  1  0  0  0  0
  3  4  4  0  0  0  0
  4  5  2  0  0  0  0
  4  6  1  0  0  0  0
  6  7  1  0  0  0  0
  7  8  1  0  0  0  0
  7  9  1  0  0  0  0
  9 10  2  0  0  0  0
  9 11  4  0  0  0  0
 11 12  1  0  0  0  0
 12 13  1  0  0  0  0
  7 14  1  0  0  0  0
 14 15  1  0  0  0  0
 15 16  2  0  0  0  0
 15 17  1  0  0  0  0
 17 18  1  0  0  0  0
 15 19  2  0  0  0  0
 19 20  1  0  0  0  0
  1 21  1  0  0  0  0
  1 22  1  0  0  0  0
  1 23  1  0  0  0  0
  2 24  1  0  0  0  0
  2 25  1  0  0  0  0
  6 26  1  0  0  0  0
  6 27  1  0  0  0  0
 12 28  1  0  0  0  0
 12 29  1  0  0  0  0
 13 30  1  0  0  0  0
 13 31  1  0  0  0  0
 13 32  1  0  0  0  0
 18 33  1  0  0  0  0
 18 34  1  0  0  0  0
 18 35  1  0  0  0  0
 20 36  1  0  0  0  0
 20 37  1  0  0  0  0
 20 38  1  0  0  0  0
M  END
