 xtb: 6.7.1 (edcfbbe)
          04032519403D

 19 19  0     0  0            999 V2000
   -2.5605    0.6238    0.0003 C   0  0  0  0  0  0  0  0  0  0  0  0
   -1.2263   -0.0573   -0.0001 C   0  0  0  0  0  0  0  0  0  0  0  0
   -1.1500   -1.4446   -0.0002 C   0  0  0  0  0  0  0  0  0  0  0  0
    0.0750   -2.0833   -0.0001 C   0  0  0  0  0  0  0  0  0  0  0  0
    1.2409   -1.3406    0.0002 C   0  0  0  0  0  0  0  0  0  0  0  0
    1.1789    0.0468    0.0001 C   0  0  0  0  0  0  0  0  0  0  0  0
   -0.0564    0.7022   -0.0001 C   0  0  0  0  0  0  0  0  0  0  0  0
   -0.1092    2.2006   -0.0002 C   0  0  0  0  0  0  0  0  0  0  0  0
    2.3171    0.8043    0.0001 O   0  0  0  0  0  0  0  0  0  0  0  0
   -2.6655    1.2562    0.8804 H   0  0  0  0  0  0  0  0  0  0  0  0
   -2.6649    1.2593   -0.8777 H   0  0  0  0  0  0  0  0  0  0  0  0
   -3.3639   -0.1075   -0.0011 H   0  0  0  0  0  0  0  0  0  0  0  0
   -2.0592   -2.0275   -0.0004 H   0  0  0  0  0  0  0  0  0  0  0  0
    0.1264   -3.1617   -0.0001 H   0  0  0  0  0  0  0  0  0  0  0  0
    2.2012   -1.8366    0.0004 H   0  0  0  0  0  0  0  0  0  0  0  0
   -0.6373    2.5636   -0.8806 H   0  0  0  0  0  0  0  0  0  0  0  0
   -0.6360    2.5637    0.8810 H   0  0  0  0  0  0  0  0  0  0  0  0
    0.8970    2.6087   -0.0010 H   0  0  0  0  0  0  0  0  0  0  0  0
    3.0962    0.2299   -0.0002 H   0  0  0  0  0  0  0  0  0  0  0  0
  1  2  1  0  0  0  0
  2  3  4  0  0  0  0
  3  4  4  0  0  0  0
  4  5  4  0  0  0  0
  5  6  4  0  0  0  0
  2  7  4  0  0  0  0
  6  7  4  0  0  0  0
  7  8  1  0  0  0  0
  6  9  1  0  0  0  0
  1 10  1  0  0  0  0
  1 11  1  0  0  0  0
  1 12  1  0  0  0  0
  3 13  1  0  0  0  0
  4 14  1  0  0  0  0
  5 15  1  0  0  0  0
  8 16  1  0  0  0  0
  8 17  1  0  0  0  0
  8 18  1  0  0  0  0
  9 19  1  0  0  0  0
M  END
