 xtb: 6.7.1 (edcfbbe)
          04032519533D

  9  8  0     0  0            999 V2000
    1.2629   -0.2903    0.0032 C   0  0  0  0  0  0  0  0  0  0  0  0
    0.0065    0.5661   -0.0499 C   0  0  0  0  0  0  0  0  0  0  0  0
   -1.1262   -0.2799    0.0447 O   0  0  0  0  0  0  0  0  0  0  0  0
    1.2901   -0.8460    0.9364 H   0  0  0  0  0  0  0  0  0  0  0  0
    1.2588   -0.9995   -0.8200 H   0  0  0  0  0  0  0  0  0  0  0  0
    2.1433    0.3406   -0.0677 H   0  0  0  0  0  0  0  0  0  0  0  0
   -0.0207    1.1257   -0.9948 H   0  0  0  0  0  0  0  0  0  0  0  0
    0.0098    1.2832    0.7821 H   0  0  0  0  0  0  0  0  0  0  0  0
   -1.9312    0.2531    0.0118 H   0  0  0  0  0  0  0  0  0  0  0  0
  1  2  1  0  0  0  0
  2  3  1  0  0  0  0
  1  4  1  0  0  0  0
  1  5  1  0  0  0  0
  1  6  1  0  0  0  0
  2  7  1  0  0  0  0
  2  8  1  0  0  0  0
  3  9  1  0  0  0  0
M  END
