 xtb: 6.7.1 (edcfbbe)
          04092505213D

 41 40  0     0  0            999 V2000
    2.2224    1.6328    2.6211 C   0  0  0  0  0  0  0  0  0  0  0  0
    1.4544    0.4266    2.1200 C   0  0  0  0  0  0  0  0  0  0  0  0
    1.9996    0.0637    0.8398 O   0  0  0  0  0  0  0  0  0  0  0  0
    1.8941   -1.3956    0.2144 P   0  0  0  0  0  0  0  0  0  0  0  0
    1.9190   -2.8561    1.5170 S   0  0  0  0  0  0  0  0  0  0  0  0
    3.0492   -1.3636   -0.8706 O   0  0  0  0  0  0  0  0  0  0  0  0
    4.3952   -1.7845   -0.5621 C   0  0  0  0  0  0  0  0  0  0  0  0
    5.0545   -0.8791    0.4564 C   0  0  0  0  0  0  0  0  0  0  0  0
    0.2339   -1.3678   -1.0921 S   0  0  0  0  0  0  0  0  0  0  0  0
    0.5047    0.2347   -1.9043 C   0  0  0  0  0  0  0  0  0  0  0  0
    0.0241    1.6609   -0.8848 S   0  0  0  0  0  0  0  0  0  0  0  0
   -1.9425    1.0502   -0.4636 P   0  0  0  0  0  0  0  0  0  0  0  0
   -2.9418    0.1327   -1.8847 S   0  0  0  0  0  0  0  0  0  0  0  0
   -2.6400    2.3790    0.0604 O   0  0  0  0  0  0  0  0  0  0  0  0
   -3.1865    3.3663   -0.8388 C   0  0  0  0  0  0  0  0  0  0  0  0
   -4.2291    4.1637   -0.0816 C   0  0  0  0  0  0  0  0  0  0  0  0
   -1.7300    0.2739    0.9041 O   0  0  0  0  0  0  0  0  0  0  0  0
   -2.7563   -0.5706    1.4762 C   0  0  0  0  0  0  0  0  0  0  0  0
   -2.4140   -2.0327    1.2709 C   0  0  0  0  0  0  0  0  0  0  0  0
    1.8035    1.9508    3.5701 H   0  0  0  0  0  0  0  0  0  0  0  0
    3.2709    1.3835    2.7571 H   0  0  0  0  0  0  0  0  0  0  0  0
    2.1404    2.4423    1.9011 H   0  0  0  0  0  0  0  0  0  0  0  0
    0.3944    0.6614    1.9912 H   0  0  0  0  0  0  0  0  0  0  0  0
    1.5508   -0.4300    2.7960 H   0  0  0  0  0  0  0  0  0  0  0  0
    4.3574   -2.8151   -0.1960 H   0  0  0  0  0  0  0  0  0  0  0  0
    4.9033   -1.7513   -1.5268 H   0  0  0  0  0  0  0  0  0  0  0  0
    4.9987    0.1569    0.1325 H   0  0  0  0  0  0  0  0  0  0  0  0
    4.5513   -0.9788    1.4173 H   0  0  0  0  0  0  0  0  0  0  0  0
    6.0947   -1.1672    0.5728 H   0  0  0  0  0  0  0  0  0  0  0  0
   -0.1143    0.2120   -2.7999 H   0  0  0  0  0  0  0  0  0  0  0  0
    1.5566    0.3560   -2.1474 H   0  0  0  0  0  0  0  0  0  0  0  0
   -2.3660    4.0030   -1.1785 H   0  0  0  0  0  0  0  0  0  0  0  0
   -3.6230    2.8493   -1.7001 H   0  0  0  0  0  0  0  0  0  0  0  0
   -5.0363    3.5133    0.2436 H   0  0  0  0  0  0  0  0  0  0  0  0
   -3.7785    4.6286    0.7904 H   0  0  0  0  0  0  0  0  0  0  0  0
   -4.6304    4.9327   -0.7334 H   0  0  0  0  0  0  0  0  0  0  0  0
   -2.7785   -0.3093    2.5354 H   0  0  0  0  0  0  0  0  0  0  0  0
   -3.7181   -0.3286    1.0160 H   0  0  0  0  0  0  0  0  0  0  0  0
   -3.1489   -2.6477    1.7800 H   0  0  0  0  0  0  0  0  0  0  0  0
   -2.4177   -2.2765    0.2103 H   0  0  0  0  0  0  0  0  0  0  0  0
   -1.4263   -2.2527    1.6713 H   0  0  0  0  0  0  0  0  0  0  0  0
  1  2  1  0  0  0  0
  2  3  1  0  0  0  0
  3  4  2  0  0  0  0
  4  5  2  0  0  0  0
  4  6  2  0  0  0  0
  6  7  1  0  0  0  0
  7  8  1  0  0  0  0
  4  9  1  0  0  0  0
  9 10  1  0  0  0  0
 10 11  1  0  0  0  0
 11 12  1  0  0  0  0
 12 13  2  0  0  0  0
 12 14  2  0  0  0  0
 14 15  1  0  0  0  0
 15 16  1  0  0  0  0
 12 17  2  0  0  0  0
 17 18  1  0  0  0  0
 18 19  1  0  0  0  0
  1 20  1  0  0  0  0
  1 21  1  0  0  0  0
  1 22  1  0  0  0  0
  2 23  1  0  0  0  0
  2 24  1  0  0  0  0
  7 25  1  0  0  0  0
  7 26  1  0  0  0  0
  8 27  1  0  0  0  0
  8 28  1  0  0  0  0
  8 29  1  0  0  0  0
 10 30  1  0  0  0  0
 10 31  1  0  0  0  0
 15 32  1  0  0  0  0
 15 33  1  0  0  0  0
 16 34  1  0  0  0  0
 16 35  1  0  0  0  0
 16 36  1  0  0  0  0
 18 37  1  0  0  0  0
 18 38  1  0  0  0  0
 19 39  1  0  0  0  0
 19 40  1  0  0  0  0
 19 41  1  0  0  0  0
M  END
