 xtb: 6.7.1 (edcfbbe)
          04092505203D

 41 40  0     0  0            999 V2000
    4.2298   -0.8058   -2.5959 C   0  0  0  0  0  0  0  0  0  0  0  0
    4.4716   -1.3661   -1.2093 C   0  0  0  0  0  0  0  0  0  0  0  0
    3.2410   -1.6085   -0.5058 O   0  0  0  0  0  0  0  0  0  0  0  0
    2.3092   -0.4267    0.0102 P   0  0  0  0  0  0  0  0  0  0  0  0
    3.2975    1.1231    0.7023 S   0  0  0  0  0  0  0  0  0  0  0  0
    1.3702   -1.2039    1.0228 O   0  0  0  0  0  0  0  0  0  0  0  0
    1.7983   -1.5174    2.3712 C   0  0  0  0  0  0  0  0  0  0  0  0
    1.3083   -0.4684    3.3496 C   0  0  0  0  0  0  0  0  0  0  0  0
    0.9285   -0.0753   -1.5458 S   0  0  0  0  0  0  0  0  0  0  0  0
    0.3086    1.5003   -0.8905 C   0  0  0  0  0  0  0  0  0  0  0  0
   -0.6821    1.3010    0.6031 S   0  0  0  0  0  0  0  0  0  0  0  0
   -2.3308    0.3296   -0.3510 P   0  0  0  0  0  0  0  0  0  0  0  0
   -2.7451    0.9490   -2.1585 S   0  0  0  0  0  0  0  0  0  0  0  0
   -3.4618    0.4005    0.7625 O   0  0  0  0  0  0  0  0  0  0  0  0
   -3.8686    1.5942    1.4591 C   0  0  0  0  0  0  0  0  0  0  0  0
   -4.2645    2.7155    0.5223 C   0  0  0  0  0  0  0  0  0  0  0  0
   -2.0091   -1.2130   -0.3900 O   0  0  0  0  0  0  0  0  0  0  0  0
   -1.7598   -2.0164    0.7870 C   0  0  0  0  0  0  0  0  0  0  0  0
   -2.9958   -2.8098    1.1569 C   0  0  0  0  0  0  0  0  0  0  0  0
    3.5445   -1.4442   -3.1481 H   0  0  0  0  0  0  0  0  0  0  0  0
    3.7965    0.1912   -2.5245 H   0  0  0  0  0  0  0  0  0  0  0  0
    5.1731   -0.7422   -3.1286 H   0  0  0  0  0  0  0  0  0  0  0  0
    5.0789   -0.6748   -0.6159 H   0  0  0  0  0  0  0  0  0  0  0  0
    4.9505   -2.3454   -1.2467 H   0  0  0  0  0  0  0  0  0  0  0  0
    1.3586   -2.4946    2.5772 H   0  0  0  0  0  0  0  0  0  0  0  0
    2.8885   -1.5941    2.3929 H   0  0  0  0  0  0  0  0  0  0  0  0
    0.2281   -0.3694    3.2901 H   0  0  0  0  0  0  0  0  0  0  0  0
    1.5883   -0.7614    4.3563 H   0  0  0  0  0  0  0  0  0  0  0  0
    1.7550    0.4971    3.1229 H   0  0  0  0  0  0  0  0  0  0  0  0
   -0.3069    1.9395   -1.6763 H   0  0  0  0  0  0  0  0  0  0  0  0
    1.1492    2.1432   -0.6295 H   0  0  0  0  0  0  0  0  0  0  0  0
   -4.7150    1.2624    2.0630 H   0  0  0  0  0  0  0  0  0  0  0  0
   -3.0464    1.9065    2.1089 H   0  0  0  0  0  0  0  0  0  0  0  0
   -3.4019    3.0467   -0.0539 H   0  0  0  0  0  0  0  0  0  0  0  0
   -5.0299    2.3777   -0.1725 H   0  0  0  0  0  0  0  0  0  0  0  0
   -4.6459    3.5509    1.1005 H   0  0  0  0  0  0  0  0  0  0  0  0
   -0.9306   -2.6690    0.5059 H   0  0  0  0  0  0  0  0  0  0  0  0
   -1.4466   -1.3619    1.6049 H   0  0  0  0  0  0  0  0  0  0  0  0
   -3.3066   -3.4242    0.3164 H   0  0  0  0  0  0  0  0  0  0  0  0
   -2.7702   -3.4483    2.0053 H   0  0  0  0  0  0  0  0  0  0  0  0
   -3.8089   -2.1370    1.4167 H   0  0  0  0  0  0  0  0  0  0  0  0
  1  2  1  0  0  0  0
  2  3  1  0  0  0  0
  3  4  2  0  0  0  0
  4  5  2  0  0  0  0
  4  6  2  0  0  0  0
  6  7  1  0  0  0  0
  7  8  1  0  0  0  0
  4  9  1  0  0  0  0
  9 10  1  0  0  0  0
 10 11  1  0  0  0  0
 11 12  1  0  0  0  0
 12 13  2  0  0  0  0
 12 14  2  0  0  0  0
 14 15  1  0  0  0  0
 15 16  1  0  0  0  0
 12 17  2  0  0  0  0
 17 18  1  0  0  0  0
 18 19  1  0  0  0  0
  1 20  1  0  0  0  0
  1 21  1  0  0  0  0
  1 22  1  0  0  0  0
  2 23  1  0  0  0  0
  2 24  1  0  0  0  0
  7 25  1  0  0  0  0
  7 26  1  0  0  0  0
  8 27  1  0  0  0  0
  8 28  1  0  0  0  0
  8 29  1  0  0  0  0
 10 30  1  0  0  0  0
 10 31  1  0  0  0  0
 15 32  1  0  0  0  0
 15 33  1  0  0  0  0
 16 34  1  0  0  0  0
 16 35  1  0  0  0  0
 16 36  1  0  0  0  0
 18 37  1  0  0  0  0
 18 38  1  0  0  0  0
 19 39  1  0  0  0  0
 19 40  1  0  0  0  0
 19 41  1  0  0  0  0
M  END
