 xtb: 6.7.1 (edcfbbe)
          04092505203D

 41 40  0     0  0            999 V2000
    5.1579    1.1763   -0.8181 C   0  0  0  0  0  0  0  0  0  0  0  0
    4.7547   -0.2849   -0.8062 C   0  0  0  0  0  0  0  0  0  0  0  0
    3.5612   -0.4996   -0.0309 O   0  0  0  0  0  0  0  0  0  0  0  0
    2.1165   -0.0590   -0.5629 P   0  0  0  0  0  0  0  0  0  0  0  0
    1.9124   -0.0637   -2.5028 S   0  0  0  0  0  0  0  0  0  0  0  0
    1.8306    1.3601    0.0907 O   0  0  0  0  0  0  0  0  0  0  0  0
    2.0372    1.6004    1.5027 C   0  0  0  0  0  0  0  0  0  0  0  0
    1.1968    2.7952    1.9012 C   0  0  0  0  0  0  0  0  0  0  0  0
    1.0346   -1.4768    0.5713 S   0  0  0  0  0  0  0  0  0  0  0  0
   -0.2035   -2.0098   -0.6635 C   0  0  0  0  0  0  0  0  0  0  0  0
   -1.8854   -1.9359   -0.0194 S   0  0  0  0  0  0  0  0  0  0  0  0
   -1.9935    0.1756    0.2427 P   0  0  0  0  0  0  0  0  0  0  0  0
   -1.1718    1.2653   -1.1651 S   0  0  0  0  0  0  0  0  0  0  0  0
   -1.3559    0.4857    1.6508 O   0  0  0  0  0  0  0  0  0  0  0  0
   -1.4629   -0.3187    2.8535 C   0  0  0  0  0  0  0  0  0  0  0  0
   -2.8947   -0.6150    3.2404 C   0  0  0  0  0  0  0  0  0  0  0  0
   -3.5363    0.4632    0.4842 O   0  0  0  0  0  0  0  0  0  0  0  0
   -4.4586    0.7171   -0.5883 C   0  0  0  0  0  0  0  0  0  0  0  0
   -4.6752   -0.5015   -1.4623 C   0  0  0  0  0  0  0  0  0  0  0  0
    6.0628    1.2956   -1.4056 H   0  0  0  0  0  0  0  0  0  0  0  0
    4.3634    1.7720   -1.2686 H   0  0  0  0  0  0  0  0  0  0  0  0
    5.3380    1.5314    0.1934 H   0  0  0  0  0  0  0  0  0  0  0  0
    5.5035   -0.9109   -0.3193 H   0  0  0  0  0  0  0  0  0  0  0  0
    4.5750   -0.6412   -1.8253 H   0  0  0  0  0  0  0  0  0  0  0  0
    1.7471    0.7019    2.0578 H   0  0  0  0  0  0  0  0  0  0  0  0
    3.1022    1.7882    1.6572 H   0  0  0  0  0  0  0  0  0  0  0  0
    0.1448    2.5847    1.7232 H   0  0  0  0  0  0  0  0  0  0  0  0
    1.3516    3.0073    2.9540 H   0  0  0  0  0  0  0  0  0  0  0  0
    1.4795    3.6612    1.3093 H   0  0  0  0  0  0  0  0  0  0  0  0
   -0.0151   -3.0511   -0.9116 H   0  0  0  0  0  0  0  0  0  0  0  0
   -0.1084   -1.3701   -1.5454 H   0  0  0  0  0  0  0  0  0  0  0  0
   -0.8979   -1.2420    2.6943 H   0  0  0  0  0  0  0  0  0  0  0  0
   -0.9617    0.2943    3.6042 H   0  0  0  0  0  0  0  0  0  0  0  0
   -3.3631   -1.2542    2.4952 H   0  0  0  0  0  0  0  0  0  0  0  0
   -2.9008   -1.1256    4.1985 H   0  0  0  0  0  0  0  0  0  0  0  0
   -3.4626    0.3081    3.3198 H   0  0  0  0  0  0  0  0  0  0  0  0
   -5.3752    1.0136   -0.0765 H   0  0  0  0  0  0  0  0  0  0  0  0
   -4.0767    1.5531   -1.1828 H   0  0  0  0  0  0  0  0  0  0  0  0
   -3.7682   -0.7245   -2.0222 H   0  0  0  0  0  0  0  0  0  0  0  0
   -4.9338   -1.3642   -0.8537 H   0  0  0  0  0  0  0  0  0  0  0  0
   -5.4783   -0.3005   -2.1641 H   0  0  0  0  0  0  0  0  0  0  0  0
  1  2  1  0  0  0  0
  2  3  1  0  0  0  0
  3  4  1  0  0  0  0
  4  5  2  0  0  0  0
  4  6  2  0  0  0  0
  6  7  1  0  0  0  0
  7  8  1  0  0  0  0
  4  9  1  0  0  0  0
  9 10  1  0  0  0  0
 10 11  1  0  0  0  0
 11 12  1  0  0  0  0
 12 13  2  0  0  0  0
 12 14  2  0  0  0  0
 14 15  1  0  0  0  0
 15 16  1  0  0  0  0
 12 17  2  0  0  0  0
 17 18  1  0  0  0  0
 18 19  1  0  0  0  0
  1 20  1  0  0  0  0
  1 21  1  0  0  0  0
  1 22  1  0  0  0  0
  2 23  1  0  0  0  0
  2 24  1  0  0  0  0
  7 25  1  0  0  0  0
  7 26  1  0  0  0  0
  8 27  1  0  0  0  0
  8 28  1  0  0  0  0
  8 29  1  0  0  0  0
 10 30  1  0  0  0  0
 10 31  1  0  0  0  0
 15 32  1  0  0  0  0
 15 33  1  0  0  0  0
 16 34  1  0  0  0  0
 16 35  1  0  0  0  0
 16 36  1  0  0  0  0
 18 37  1  0  0  0  0
 18 38  1  0  0  0  0
 19 39  1  0  0  0  0
 19 40  1  0  0  0  0
 19 41  1  0  0  0  0
M  END
