 xtb: 6.7.1 (edcfbbe)
          04092505203D

 41 40  0     0  0            999 V2000
    3.7722   -1.3348   -2.3902 C   0  0  0  0  0  0  0  0  0  0  0  0
    4.1857   -0.1092   -1.5999 C   0  0  0  0  0  0  0  0  0  0  0  0
    3.6326   -0.1020   -0.2757 O   0  0  0  0  0  0  0  0  0  0  0  0
    2.0746    0.0774    0.0206 P   0  0  0  0  0  0  0  0  0  0  0  0
    1.2167    1.3768   -1.1755 S   0  0  0  0  0  0  0  0  0  0  0  0
    2.1203    0.3660    1.5712 O   0  0  0  0  0  0  0  0  0  0  0  0
    2.1978    1.6922    2.1286 C   0  0  0  0  0  0  0  0  0  0  0  0
    3.4781    2.4033    1.7453 C   0  0  0  0  0  0  0  0  0  0  0  0
    1.3100   -1.8912    0.0681 S   0  0  0  0  0  0  0  0  0  0  0  0
    0.0247   -1.7886   -1.2282 C   0  0  0  0  0  0  0  0  0  0  0  0
   -1.6627   -2.0460   -0.6174 S   0  0  0  0  0  0  0  0  0  0  0  0
   -2.1127   -0.0982    0.0653 P   0  0  0  0  0  0  0  0  0  0  0  0
   -1.0684    0.5825    1.5903 S   0  0  0  0  0  0  0  0  0  0  0  0
   -3.6760   -0.1228    0.3417 O   0  0  0  0  0  0  0  0  0  0  0  0
   -4.2236   -0.4833    1.6208 C   0  0  0  0  0  0  0  0  0  0  0  0
   -4.0445   -1.9591    1.9105 C   0  0  0  0  0  0  0  0  0  0  0  0
   -2.0326    0.6618   -1.3197 O   0  0  0  0  0  0  0  0  0  0  0  0
   -2.7069    1.9003   -1.6302 C   0  0  0  0  0  0  0  0  0  0  0  0
   -2.2367    3.0476   -0.7617 C   0  0  0  0  0  0  0  0  0  0  0  0
    3.9780   -2.2377   -1.8209 H   0  0  0  0  0  0  0  0  0  0  0  0
    2.7064   -1.2925   -2.6115 H   0  0  0  0  0  0  0  0  0  0  0  0
    4.3242   -1.3622   -3.3243 H   0  0  0  0  0  0  0  0  0  0  0  0
    3.8665    0.8040   -2.1131 H   0  0  0  0  0  0  0  0  0  0  0  0
    5.2634   -0.0836   -1.4331 H   0  0  0  0  0  0  0  0  0  0  0  0
    1.3178    2.2544    1.7990 H   0  0  0  0  0  0  0  0  0  0  0  0
    2.1301    1.5208    3.2038 H   0  0  0  0  0  0  0  0  0  0  0  0
    4.3381    1.7933    2.0096 H   0  0  0  0  0  0  0  0  0  0  0  0
    3.4934    2.5894    0.6717 H   0  0  0  0  0  0  0  0  0  0  0  0
    3.5301    3.3528    2.2689 H   0  0  0  0  0  0  0  0  0  0  0  0
    0.2040   -2.6004   -1.9277 H   0  0  0  0  0  0  0  0  0  0  0  0
    0.0861   -0.8128   -1.7162 H   0  0  0  0  0  0  0  0  0  0  0  0
   -3.7349    0.1232    2.3906 H   0  0  0  0  0  0  0  0  0  0  0  0
   -5.2766   -0.2100    1.5427 H   0  0  0  0  0  0  0  0  0  0  0  0
   -2.9856   -2.1874    2.0290 H   0  0  0  0  0  0  0  0  0  0  0  0
   -4.5643   -2.2129    2.8287 H   0  0  0  0  0  0  0  0  0  0  0  0
   -4.4389   -2.5555    1.0919 H   0  0  0  0  0  0  0  0  0  0  0  0
   -2.4529    2.0666   -2.6783 H   0  0  0  0  0  0  0  0  0  0  0  0
   -3.7816    1.7382   -1.5228 H   0  0  0  0  0  0  0  0  0  0  0  0
   -2.4934    2.8624    0.2806 H   0  0  0  0  0  0  0  0  0  0  0  0
   -1.1561    3.1528   -0.8389 H   0  0  0  0  0  0  0  0  0  0  0  0
   -2.7109    3.9674   -1.0886 H   0  0  0  0  0  0  0  0  0  0  0  0
  1  2  1  0  0  0  0
  2  3  1  0  0  0  0
  3  4  2  0  0  0  0
  4  5  2  0  0  0  0
  4  6  2  0  0  0  0
  6  7  1  0  0  0  0
  7  8  1  0  0  0  0
  4  9  1  0  0  0  0
  9 10  1  0  0  0  0
 10 11  1  0  0  0  0
 11 12  1  0  0  0  0
 12 13  2  0  0  0  0
 12 14  2  0  0  0  0
 14 15  1  0  0  0  0
 15 16  1  0  0  0  0
 12 17  2  0  0  0  0
 17 18  1  0  0  0  0
 18 19  1  0  0  0  0
  1 20  1  0  0  0  0
  1 21  1  0  0  0  0
  1 22  1  0  0  0  0
  2 23  1  0  0  0  0
  2 24  1  0  0  0  0
  7 25  1  0  0  0  0
  7 26  1  0  0  0  0
  8 27  1  0  0  0  0
  8 28  1  0  0  0  0
  8 29  1  0  0  0  0
 10 30  1  0  0  0  0
 10 31  1  0  0  0  0
 15 32  1  0  0  0  0
 15 33  1  0  0  0  0
 16 34  1  0  0  0  0
 16 35  1  0  0  0  0
 16 36  1  0  0  0  0
 18 37  1  0  0  0  0
 18 38  1  0  0  0  0
 19 39  1  0  0  0  0
 19 40  1  0  0  0  0
 19 41  1  0  0  0  0
M  END
