 xtb: 6.7.1 (edcfbbe)
          04092505203D

 41 40  0     0  0            999 V2000
    2.5519   -1.2857    3.1779 C   0  0  0  0  0  0  0  0  0  0  0  0
    1.3619   -1.3038    2.2412 C   0  0  0  0  0  0  0  0  0  0  0  0
    1.3335   -0.1121    1.4394 O   0  0  0  0  0  0  0  0  0  0  0  0
    2.1687    0.0636    0.1047 P   0  0  0  0  0  0  0  0  0  0  0  0
    2.9993   -1.5833   -0.5712 S   0  0  0  0  0  0  0  0  0  0  0  0
    3.1189    1.2461    0.5671 O   0  0  0  0  0  0  0  0  0  0  0  0
    3.7991    2.1663   -0.3067 C   0  0  0  0  0  0  0  0  0  0  0  0
    4.6374    1.4695   -1.3584 C   0  0  0  0  0  0  0  0  0  0  0  0
    0.8130    1.0330   -1.2072 S   0  0  0  0  0  0  0  0  0  0  0  0
    0.0980   -0.4638   -1.9262 C   0  0  0  0  0  0  0  0  0  0  0  0
   -0.7085   -1.5313   -0.6977 S   0  0  0  0  0  0  0  0  0  0  0  0
   -2.2007   -0.1712   -0.0794 P   0  0  0  0  0  0  0  0  0  0  0  0
   -2.8834    1.0722   -1.4360 S   0  0  0  0  0  0  0  0  0  0  0  0
   -1.5585    0.4678    1.2148 O   0  0  0  0  0  0  0  0  0  0  0  0
   -1.9402    1.7616    1.7378 C   0  0  0  0  0  0  0  0  0  0  0  0
   -0.8654    2.7886    1.4418 C   0  0  0  0  0  0  0  0  0  0  0  0
   -3.2779   -1.1319    0.5915 O   0  0  0  0  0  0  0  0  0  0  0  0
   -4.1662   -1.9608   -0.1868 C   0  0  0  0  0  0  0  0  0  0  0  0
   -5.5017   -1.2731   -0.3951 C   0  0  0  0  0  0  0  0  0  0  0  0
    3.4724   -1.2859    2.5954 H   0  0  0  0  0  0  0  0  0  0  0  0
    2.5295   -0.3936    3.7976 H   0  0  0  0  0  0  0  0  0  0  0  0
    2.5298   -2.1685    3.8088 H   0  0  0  0  0  0  0  0  0  0  0  0
    0.4127   -1.2927    2.7795 H   0  0  0  0  0  0  0  0  0  0  0  0
    1.3987   -2.1785    1.5824 H   0  0  0  0  0  0  0  0  0  0  0  0
    3.0494    2.8112   -0.7739 H   0  0  0  0  0  0  0  0  0  0  0  0
    4.4191    2.7529    0.3737 H   0  0  0  0  0  0  0  0  0  0  0  0
    5.1971    2.2095   -1.9213 H   0  0  0  0  0  0  0  0  0  0  0  0
    5.3296    0.7726   -0.8918 H   0  0  0  0  0  0  0  0  0  0  0  0
    3.9975    0.9135   -2.0424 H   0  0  0  0  0  0  0  0  0  0  0  0
    0.8827   -1.0677   -2.3811 H   0  0  0  0  0  0  0  0  0  0  0  0
   -0.6331   -0.1327   -2.6629 H   0  0  0  0  0  0  0  0  0  0  0  0
   -2.8966    2.0600    1.2992 H   0  0  0  0  0  0  0  0  0  0  0  0
   -2.0597    1.6049    2.8110 H   0  0  0  0  0  0  0  0  0  0  0  0
   -0.8147    2.9834    0.3725 H   0  0  0  0  0  0  0  0  0  0  0  0
   -1.1005    3.7119    1.9614 H   0  0  0  0  0  0  0  0  0  0  0  0
    0.1020    2.4206    1.7762 H   0  0  0  0  0  0  0  0  0  0  0  0
   -3.6930   -2.1989   -1.1437 H   0  0  0  0  0  0  0  0  0  0  0  0
   -4.2756   -2.8742    0.4008 H   0  0  0  0  0  0  0  0  0  0  0  0
   -5.3715   -0.3660   -0.9810 H   0  0  0  0  0  0  0  0  0  0  0  0
   -6.1697   -1.9441   -0.9254 H   0  0  0  0  0  0  0  0  0  0  0  0
   -5.9400   -1.0118    0.5639 H   0  0  0  0  0  0  0  0  0  0  0  0
  1  2  1  0  0  0  0
  2  3  1  0  0  0  0
  3  4  2  0  0  0  0
  4  5  2  0  0  0  0
  4  6  2  0  0  0  0
  6  7  1  0  0  0  0
  7  8  1  0  0  0  0
  4  9  1  0  0  0  0
  9 10  1  0  0  0  0
 10 11  1  0  0  0  0
 11 12  1  0  0  0  0
 12 13  2  0  0  0  0
 12 14  2  0  0  0  0
 14 15  1  0  0  0  0
 15 16  1  0  0  0  0
 12 17  2  0  0  0  0
 17 18  1  0  0  0  0
 18 19  1  0  0  0  0
  1 20  1  0  0  0  0
  1 21  1  0  0  0  0
  1 22  1  0  0  0  0
  2 23  1  0  0  0  0
  2 24  1  0  0  0  0
  7 25  1  0  0  0  0
  7 26  1  0  0  0  0
  8 27  1  0  0  0  0
  8 28  1  0  0  0  0
  8 29  1  0  0  0  0
 10 30  1  0  0  0  0
 10 31  1  0  0  0  0
 15 32  1  0  0  0  0
 15 33  1  0  0  0  0
 16 34  1  0  0  0  0
 16 35  1  0  0  0  0
 16 36  1  0  0  0  0
 18 37  1  0  0  0  0
 18 38  1  0  0  0  0
 19 39  1  0  0  0  0
 19 40  1  0  0  0  0
 19 41  1  0  0  0  0
M  END
