 xtb: 6.7.1 (edcfbbe)
          04092505213D

 41 40  0     0  0            999 V2000
    2.3065   -2.8903    1.9032 C   0  0  0  0  0  0  0  0  0  0  0  0
    1.3841   -2.1209    0.9790 C   0  0  0  0  0  0  0  0  0  0  0  0
    1.7464   -0.7289    0.9975 O   0  0  0  0  0  0  0  0  0  0  0  0
    2.3342    0.0806   -0.2461 P   0  0  0  0  0  0  0  0  0  0  0  0
    3.0309   -0.9961   -1.7153 S   0  0  0  0  0  0  0  0  0  0  0  0
    3.4311    0.9965    0.4162 O   0  0  0  0  0  0  0  0  0  0  0  0
    3.1583    1.8750    1.5396 C   0  0  0  0  0  0  0  0  0  0  0  0
    4.4038    2.7000    1.7844 C   0  0  0  0  0  0  0  0  0  0  0  0
    0.8145    1.5010   -0.7467 S   0  0  0  0  0  0  0  0  0  0  0  0
    0.0430    0.5476   -2.0746 C   0  0  0  0  0  0  0  0  0  0  0  0
   -0.7021   -0.9980   -1.4909 S   0  0  0  0  0  0  0  0  0  0  0  0
   -2.0674   -0.1101   -0.1299 P   0  0  0  0  0  0  0  0  0  0  0  0
   -2.8789    1.5770   -0.7208 S   0  0  0  0  0  0  0  0  0  0  0  0
   -1.2212   -0.0524    1.2052 O   0  0  0  0  0  0  0  0  0  0  0  0
   -1.3937    0.9928    2.1824 C   0  0  0  0  0  0  0  0  0  0  0  0
   -2.6767    0.7994    2.9621 C   0  0  0  0  0  0  0  0  0  0  0  0
   -3.0368   -1.3195    0.2106 O   0  0  0  0  0  0  0  0  0  0  0  0
   -3.9731   -1.8683   -0.7386 C   0  0  0  0  0  0  0  0  0  0  0  0
   -5.3148   -1.1664   -0.6536 C   0  0  0  0  0  0  0  0  0  0  0  0
    3.3307   -2.8222    1.5430 H   0  0  0  0  0  0  0  0  0  0  0  0
    2.2568   -2.4847    2.9096 H   0  0  0  0  0  0  0  0  0  0  0  0
    2.0038   -3.9322    1.9193 H   0  0  0  0  0  0  0  0  0  0  0  0
    0.3440   -2.1691    1.3104 H   0  0  0  0  0  0  0  0  0  0  0  0
    1.4578   -2.4992   -0.0459 H   0  0  0  0  0  0  0  0  0  0  0  0
    2.3026    2.5058    1.2824 H   0  0  0  0  0  0  0  0  0  0  0  0
    2.9073    1.2550    2.4024 H   0  0  0  0  0  0  0  0  0  0  0  0
    5.2445    2.0485    2.0043 H   0  0  0  0  0  0  0  0  0  0  0  0
    4.6399    3.2888    0.9027 H   0  0  0  0  0  0  0  0  0  0  0  0
    4.2315    3.3641    2.6251 H   0  0  0  0  0  0  0  0  0  0  0  0
    0.7938    0.2689   -2.8134 H   0  0  0  0  0  0  0  0  0  0  0  0
   -0.7270    1.1873   -2.5046 H   0  0  0  0  0  0  0  0  0  0  0  0
   -0.5104    0.9106    2.8174 H   0  0  0  0  0  0  0  0  0  0  0  0
   -1.3908    1.9590    1.6671 H   0  0  0  0  0  0  0  0  0  0  0  0
   -2.6935   -0.1850    3.4219 H   0  0  0  0  0  0  0  0  0  0  0  0
   -2.7526    1.5620    3.7306 H   0  0  0  0  0  0  0  0  0  0  0  0
   -3.5283    0.8873    2.2882 H   0  0  0  0  0  0  0  0  0  0  0  0
   -3.5515   -1.7936   -1.7453 H   0  0  0  0  0  0  0  0  0  0  0  0
   -4.0566   -2.9200   -0.4582 H   0  0  0  0  0  0  0  0  0  0  0  0
   -5.7082   -1.2331    0.3569 H   0  0  0  0  0  0  0  0  0  0  0  0
   -5.2112   -0.1172   -0.9212 H   0  0  0  0  0  0  0  0  0  0  0  0
   -6.0092   -1.6392   -1.3407 H   0  0  0  0  0  0  0  0  0  0  0  0
  1  2  1  0  0  0  0
  2  3  1  0  0  0  0
  3  4  2  0  0  0  0
  4  5  2  0  0  0  0
  4  6  2  0  0  0  0
  6  7  1  0  0  0  0
  7  8  1  0  0  0  0
  4  9  1  0  0  0  0
  9 10  1  0  0  0  0
 10 11  1  0  0  0  0
 11 12  1  0  0  0  0
 12 13  2  0  0  0  0
 12 14  2  0  0  0  0
 14 15  1  0  0  0  0
 15 16  1  0  0  0  0
 12 17  2  0  0  0  0
 17 18  1  0  0  0  0
 18 19  1  0  0  0  0
  1 20  1  0  0  0  0
  1 21  1  0  0  0  0
  1 22  1  0  0  0  0
  2 23  1  0  0  0  0
  2 24  1  0  0  0  0
  7 25  1  0  0  0  0
  7 26  1  0  0  0  0
  8 27  1  0  0  0  0
  8 28  1  0  0  0  0
  8 29  1  0  0  0  0
 10 30  1  0  0  0  0
 10 31  1  0  0  0  0
 15 32  1  0  0  0  0
 15 33  1  0  0  0  0
 16 34  1  0  0  0  0
 16 35  1  0  0  0  0
 16 36  1  0  0  0  0
 18 37  1  0  0  0  0
 18 38  1  0  0  0  0
 19 39  1  0  0  0  0
 19 40  1  0  0  0  0
 19 41  1  0  0  0  0
M  END
