 xtb: 6.7.1 (edcfbbe)
          04092507313D

 38 37  0     0  0            999 V2000
    4.8008   -1.4544    0.8201 C   0  0  0  0  0  0  0  0  0  0  0  0
    4.3675   -2.2643   -0.3911 C   0  0  0  0  0  0  0  0  0  0  0  0
    2.9344   -2.2200   -0.5286 O   0  0  0  0  0  0  0  0  0  0  0  0
    2.4045   -1.3209   -1.3296 C   0  0  0  0  0  0  0  0  0  0  0  0
    3.0309   -0.5707   -2.0478 O   0  0  0  0  0  0  0  0  0  0  0  0
    0.8867   -1.3757   -1.2973 C   0  0  0  0  0  0  0  0  0  0  0  0
    0.3555    0.0519   -1.3239 C   0  0  0  0  0  0  0  0  0  0  0  0
    0.7549    0.5613   -2.2098 H   0  0  0  0  0  0  0  0  0  0  0  0
    0.8530    0.8324   -0.1216 C   0  0  0  0  0  0  0  0  0  0  0  0
    1.9019    0.5778    0.4221 O   0  0  0  0  0  0  0  0  0  0  0  0
    0.0538    1.8321    0.1973 O   0  0  0  0  0  0  0  0  0  0  0  0
    0.4586    2.7049    1.2716 C   0  0  0  0  0  0  0  0  0  0  0  0
    1.3278    3.8337    0.7457 C   0  0  0  0  0  0  0  0  0  0  0  0
   -1.4481    0.1397   -1.5134 S   0  0  0  0  0  0  0  0  0  0  0  0
   -2.0869   -0.0027    0.5116 P   0  0  0  0  0  0  0  0  0  0  0  0
   -0.8782   -0.8514    1.8000 S   0  0  0  0  0  0  0  0  0  0  0  0
   -2.5780    1.4215    0.9844 O   0  0  0  0  0  0  0  0  0  0  0  0
   -3.5194    2.2015    0.2177 C   0  0  0  0  0  0  0  0  0  0  0  0
   -3.4943   -0.7451    0.3432 O   0  0  0  0  0  0  0  0  0  0  0  0
   -3.5701   -2.1249   -0.0328 C   0  0  0  0  0  0  0  0  0  0  0  0
    4.4695   -0.4238    0.7099 H   0  0  0  0  0  0  0  0  0  0  0  0
    4.3532   -1.8628    1.7219 H   0  0  0  0  0  0  0  0  0  0  0  0
    5.8819   -1.4786    0.9071 H   0  0  0  0  0  0  0  0  0  0  0  0
    4.6066   -3.3216   -0.2719 H   0  0  0  0  0  0  0  0  0  0  0  0
    4.8164   -1.8695   -1.3072 H   0  0  0  0  0  0  0  0  0  0  0  0
    0.5734   -1.9035   -0.3956 H   0  0  0  0  0  0  0  0  0  0  0  0
    0.5369   -1.9123   -2.1804 H   0  0  0  0  0  0  0  0  0  0  0  0
   -0.4782    3.0732    1.6906 H   0  0  0  0  0  0  0  0  0  0  0  0
    0.9916    2.1058    2.0158 H   0  0  0  0  0  0  0  0  0  0  0  0
    0.8007    4.3835   -0.0291 H   0  0  0  0  0  0  0  0  0  0  0  0
    1.5698    4.5053    1.5625 H   0  0  0  0  0  0  0  0  0  0  0  0
    2.2510    3.4328    0.3326 H   0  0  0  0  0  0  0  0  0  0  0  0
   -3.6279    3.1342    0.7650 H   0  0  0  0  0  0  0  0  0  0  0  0
   -4.4704    1.6769    0.1548 H   0  0  0  0  0  0  0  0  0  0  0  0
   -3.1231    2.3821   -0.7813 H   0  0  0  0  0  0  0  0  0  0  0  0
   -2.8978   -2.7205    0.5866 H   0  0  0  0  0  0  0  0  0  0  0  0
   -3.3083   -2.2365   -1.0847 H   0  0  0  0  0  0  0  0  0  0  0  0
   -4.6026   -2.4182    0.1387 H   0  0  0  0  0  0  0  0  0  0  0  0
  1  2  1  0  0  0  0
  2  3  1  0  0  0  0
  3  4  1  0  0  0  0
  4  5  2  0  0  0  0
  4  6  1  0  0  0  0
  6  7  1  0  0  0  0
  7  8  1  0  0  0  0
  7  9  1  0  0  0  0
  9 10  2  0  0  0  0
  9 11  1  0  0  0  0
 11 12  1  0  0  0  0
 12 13  1  0  0  0  0
  7 14  1  0  0  0  0
 14 15  1  0  0  0  0
 15 16  2  0  0  0  0
 15 17  2  0  0  0  0
 17 18  1  0  0  0  0
 15 19  1  0  0  0  0
 19 20  1  0  0  0  0
  1 21  1  0  0  0  0
  1 22  1  0  0  0  0
  1 23  1  0  0  0  0
  2 24  1  0  0  0  0
  2 25  1  0  0  0  0
  6 26  1  0  0  0  0
  6 27  1  0  0  0  0
 12 28  1  0  0  0  0
 12 29  1  0  0  0  0
 13 30  1  0  0  0  0
 13 31  1  0  0  0  0
 13 32  1  0  0  0  0
 18 33  1  0  0  0  0
 18 34  1  0  0  0  0
 18 35  1  0  0  0  0
 20 36  1  0  0  0  0
 20 37  1  0  0  0  0
 20 38  1  0  0  0  0
M  END
