 xtb: 6.7.1 (edcfbbe)
          04032519423D

 20 20  0     0  0            999 V2000
    0.6000    1.7046   -0.0308 C   0  0  0  0  0  0  0  0  0  0  0  0
    1.3951    0.4064   -0.2512 C   0  0  0  0  0  0  0  0  0  0  0  0
    1.6035    0.2933   -1.3224 H   0  0  0  0  0  0  0  0  0  0  0  0
    0.5356   -0.7784    0.2178 C   0  0  0  0  0  0  0  0  0  0  0  0
    0.3181   -0.6888    1.2888 H   0  0  0  0  0  0  0  0  0  0  0  0
   -0.7981   -0.7326   -0.5448 C   0  0  0  0  0  0  0  0  0  0  0  0
   -0.5964   -0.7727   -1.6294 H   0  0  0  0  0  0  0  0  0  0  0  0
   -1.4833    0.6150   -0.2581 C   0  0  0  0  0  0  0  0  0  0  0  0
   -2.3900    0.6936   -0.8715 H   0  0  0  0  0  0  0  0  0  0  0  0
   -0.6579    1.6743   -0.6909 O   0  0  0  0  0  0  0  0  0  0  0  0
   -1.7654    0.6973    1.0985 O   0  0  0  0  0  0  0  0  0  0  0  0
   -1.6550   -1.7801   -0.1822 O   0  0  0  0  0  0  0  0  0  0  0  0
    1.1644   -2.0270    0.0665 O   0  0  0  0  0  0  0  0  0  0  0  0
    2.6544    0.4479    0.3652 O   0  0  0  0  0  0  0  0  0  0  0  0
    1.1311    2.5571   -0.4533 H   0  0  0  0  0  0  0  0  0  0  0  0
    0.4496    1.8576    1.0453 H   0  0  0  0  0  0  0  0  0  0  0  0
   -2.4129    1.3977    1.2688 H   0  0  0  0  0  0  0  0  0  0  0  0
   -1.1082   -2.5502    0.0458 H   0  0  0  0  0  0  0  0  0  0  0  0
    1.6044   -2.0746   -0.7945 H   0  0  0  0  0  0  0  0  0  0  0  0
    2.5515    0.4855    1.3272 H   0  0  0  0  0  0  0  0  0  0  0  0
  1  2  1  0  0  0  0
  2  3  1  0  0  0  0
  2  4  1  0  0  0  0
  4  5  1  0  0  0  0
  4  6  1  0  0  0  0
  6  7  1  0  0  0  0
  6  8  1  0  0  0  0
  8  9  1  0  0  0  0
  1 10  1  0  0  0  0
  8 10  1  0  0  0  0
  8 11  1  0  0  0  0
  6 12  1  0  0  0  0
  4 13  1  0  0  0  0
  2 14  1  0  0  0  0
  1 15  1  0  0  0  0
  1 16  1  0  0  0  0
 11 17  1  0  0  0  0
 12 18  1  0  0  0  0
 13 19  1  0  0  0  0
 14 20  1  0  0  0  0
M  END
