 xtb: 6.7.1 (edcfbbe)
          04092505203D

 41 40  0     0  0            999 V2000
    2.9703    0.5618   -2.6948 C   0  0  0  0  0  0  0  0  0  0  0  0
    3.7901    0.7615   -1.4361 C   0  0  0  0  0  0  0  0  0  0  0  0
    3.4877   -0.2268   -0.4401 O   0  0  0  0  0  0  0  0  0  0  0  0
    2.1067   -0.2502    0.3495 P   0  0  0  0  0  0  0  0  0  0  0  0
    1.4915    1.5409    0.8746 S   0  0  0  0  0  0  0  0  0  0  0  0
    2.3970   -1.2389    1.5509 O   0  0  0  0  0  0  0  0  0  0  0  0
    2.8652   -0.7726    2.8343 C   0  0  0  0  0  0  0  0  0  0  0  0
    4.3003   -0.2953    2.7649 C   0  0  0  0  0  0  0  0  0  0  0  0
    0.9544   -1.5725   -0.8337 S   0  0  0  0  0  0  0  0  0  0  0  0
   -0.3198   -2.0567    0.3717 C   0  0  0  0  0  0  0  0  0  0  0  0
   -1.2039   -0.6730    1.1422 S   0  0  0  0  0  0  0  0  0  0  0  0
   -2.0425    0.2283   -0.6110 P   0  0  0  0  0  0  0  0  0  0  0  0
   -0.9091    1.1648   -1.8986 S   0  0  0  0  0  0  0  0  0  0  0  0
   -3.2061    1.1180    0.0074 O   0  0  0  0  0  0  0  0  0  0  0  0
   -3.0085    2.4784    0.4263 C   0  0  0  0  0  0  0  0  0  0  0  0
   -2.2130    2.5655    1.7127 C   0  0  0  0  0  0  0  0  0  0  0  0
   -2.8107   -0.9642   -1.2981 O   0  0  0  0  0  0  0  0  0  0  0  0
   -3.8721   -1.7243   -0.6645 C   0  0  0  0  0  0  0  0  0  0  0  0
   -5.2291   -1.1630   -1.0364 C   0  0  0  0  0  0  0  0  0  0  0  0
    3.3028    1.2566   -3.4592 H   0  0  0  0  0  0  0  0  0  0  0  0
    3.0779   -0.4570   -3.0591 H   0  0  0  0  0  0  0  0  0  0  0  0
    1.9148    0.7500   -2.4919 H   0  0  0  0  0  0  0  0  0  0  0  0
    3.6045    1.7542   -1.0117 H   0  0  0  0  0  0  0  0  0  0  0  0
    4.8565    0.6295   -1.6242 H   0  0  0  0  0  0  0  0  0  0  0  0
    2.2048    0.0325    3.1721 H   0  0  0  0  0  0  0  0  0  0  0  0
    2.7580   -1.6423    3.4836 H   0  0  0  0  0  0  0  0  0  0  0  0
    4.6485   -0.0529    3.7640 H   0  0  0  0  0  0  0  0  0  0  0  0
    4.9330   -1.0681    2.3363 H   0  0  0  0  0  0  0  0  0  0  0  0
    4.3633    0.5958    2.1418 H   0  0  0  0  0  0  0  0  0  0  0  0
    0.1430   -2.6066    1.1882 H   0  0  0  0  0  0  0  0  0  0  0  0
   -1.0149   -2.6854   -0.1809 H   0  0  0  0  0  0  0  0  0  0  0  0
   -2.5030    3.0216   -0.3787 H   0  0  0  0  0  0  0  0  0  0  0  0
   -4.0217    2.8624    0.5545 H   0  0  0  0  0  0  0  0  0  0  0  0
   -2.6491    1.9214    2.4721 H   0  0  0  0  0  0  0  0  0  0  0  0
   -1.1810    2.2599    1.5414 H   0  0  0  0  0  0  0  0  0  0  0  0
   -2.2120    3.5915    2.0659 H   0  0  0  0  0  0  0  0  0  0  0  0
   -3.7468   -2.7380   -1.0503 H   0  0  0  0  0  0  0  0  0  0  0  0
   -3.7236   -1.7119    0.4185 H   0  0  0  0  0  0  0  0  0  0  0  0
   -5.3433   -0.1576   -0.6407 H   0  0  0  0  0  0  0  0  0  0  0  0
   -5.3329   -1.1276   -2.1174 H   0  0  0  0  0  0  0  0  0  0  0  0
   -6.0026   -1.8021   -0.6220 H   0  0  0  0  0  0  0  0  0  0  0  0
  1  2  1  0  0  0  0
  2  3  1  0  0  0  0
  3  4  2  0  0  0  0
  4  5  2  0  0  0  0
  4  6  2  0  0  0  0
  6  7  1  0  0  0  0
  7  8  1  0  0  0  0
  4  9  1  0  0  0  0
  9 10  1  0  0  0  0
 10 11  1  0  0  0  0
 11 12  1  0  0  0  0
 12 13  2  0  0  0  0
 12 14  2  0  0  0  0
 14 15  1  0  0  0  0
 15 16  1  0  0  0  0
 12 17  2  0  0  0  0
 17 18  1  0  0  0  0
 18 19  1  0  0  0  0
  1 20  1  0  0  0  0
  1 21  1  0  0  0  0
  1 22  1  0  0  0  0
  2 23  1  0  0  0  0
  2 24  1  0  0  0  0
  7 25  1  0  0  0  0
  7 26  1  0  0  0  0
  8 27  1  0  0  0  0
  8 28  1  0  0  0  0
  8 29  1  0  0  0  0
 10 30  1  0  0  0  0
 10 31  1  0  0  0  0
 15 32  1  0  0  0  0
 15 33  1  0  0  0  0
 16 34  1  0  0  0  0
 16 35  1  0  0  0  0
 16 36  1  0  0  0  0
 18 37  1  0  0  0  0
 18 38  1  0  0  0  0
 19 39  1  0  0  0  0
 19 40  1  0  0  0  0
 19 41  1  0  0  0  0
M  END
