 xtb: 6.7.1 (edcfbbe)
          04032519423D

 20 20  0     0  0            999 V2000
    0.6155    1.6986   -0.0016 C   0  0  0  0  0  0  0  0  0  0  0  0
    1.3977    0.3989   -0.2456 C   0  0  0  0  0  0  0  0  0  0  0  0
    1.6058    0.3048   -1.3187 H   0  0  0  0  0  0  0  0  0  0  0  0
    0.5357   -0.7973    0.2048 C   0  0  0  0  0  0  0  0  0  0  0  0
    0.3246   -0.7332    1.2782 H   0  0  0  0  0  0  0  0  0  0  0  0
   -0.8081   -0.7363   -0.5420 C   0  0  0  0  0  0  0  0  0  0  0  0
   -0.6136   -0.7974   -1.6258 H   0  0  0  0  0  0  0  0  0  0  0  0
   -1.4735    0.6328   -0.2709 C   0  0  0  0  0  0  0  0  0  0  0  0
   -2.3636    0.7393   -0.9093 H   0  0  0  0  0  0  0  0  0  0  0  0
   -0.6320    1.6859   -0.6799 O   0  0  0  0  0  0  0  0  0  0  0  0
   -1.8006    0.7116    1.0766 O   0  0  0  0  0  0  0  0  0  0  0  0
   -1.6043   -1.8066   -0.1157 O   0  0  0  0  0  0  0  0  0  0  0  0
    1.1981   -2.0210    0.0397 O   0  0  0  0  0  0  0  0  0  0  0  0
    2.6570    0.4211    0.3720 O   0  0  0  0  0  0  0  0  0  0  0  0
    1.1580    2.5559   -0.3991 H   0  0  0  0  0  0  0  0  0  0  0  0
    0.4538    1.8285    1.0755 H   0  0  0  0  0  0  0  0  0  0  0  0
   -2.3684    1.4798    1.2424 H   0  0  0  0  0  0  0  0  0  0  0  0
   -2.4532   -1.8001   -0.5809 H   0  0  0  0  0  0  0  0  0  0  0  0
    1.3997   -2.1662   -0.8959 H   0  0  0  0  0  0  0  0  0  0  0  0
    2.5550    0.3439    1.3315 H   0  0  0  0  0  0  0  0  0  0  0  0
  1  2  1  0  0  0  0
  2  3  1  0  0  0  0
  2  4  1  0  0  0  0
  4  5  1  0  0  0  0
  4  6  1  0  0  0  0
  6  7  1  0  0  0  0
  6  8  1  0  0  0  0
  8  9  1  0  0  0  0
  1 10  1  0  0  0  0
  8 10  1  0  0  0  0
  8 11  1  0  0  0  0
  6 12  1  0  0  0  0
  4 13  1  0  0  0  0
  2 14  1  0  0  0  0
  1 15  1  0  0  0  0
  1 16  1  0  0  0  0
 11 17  1  0  0  0  0
 12 18  1  0  0  0  0
 13 19  1  0  0  0  0
 14 20  1  0  0  0  0
M  END
