 xtb: 6.7.1 (edcfbbe)
          04092505203D

 41 40  0     0  0            999 V2000
    4.4001    0.6335   -2.2640 C   0  0  0  0  0  0  0  0  0  0  0  0
    4.6565    0.0433   -0.8935 C   0  0  0  0  0  0  0  0  0  0  0  0
    3.6829    0.4568    0.0841 O   0  0  0  0  0  0  0  0  0  0  0  0
    2.1087    0.2957   -0.0560 P   0  0  0  0  0  0  0  0  0  0  0  0
    1.1447    1.5884   -1.1703 S   0  0  0  0  0  0  0  0  0  0  0  0
    1.6557    0.4306    1.4492 O   0  0  0  0  0  0  0  0  0  0  0  0
    2.2656   -0.3575    2.5108 C   0  0  0  0  0  0  0  0  0  0  0  0
    1.1909   -0.7834    3.4893 C   0  0  0  0  0  0  0  0  0  0  0  0
    1.8919   -1.7505   -0.5972 S   0  0  0  0  0  0  0  0  0  0  0  0
    0.1420   -1.7022   -1.0280 C   0  0  0  0  0  0  0  0  0  0  0  0
   -0.9276   -1.4103    0.4166 S   0  0  0  0  0  0  0  0  0  0  0  0
   -2.0824    0.2403   -0.2734 P   0  0  0  0  0  0  0  0  0  0  0  0
   -2.1673    0.5006   -2.2074 S   0  0  0  0  0  0  0  0  0  0  0  0
   -1.5593    1.4990    0.5176 O   0  0  0  0  0  0  0  0  0  0  0  0
   -1.4864    1.5524    1.9631 C   0  0  0  0  0  0  0  0  0  0  0  0
   -2.6524    2.3368    2.5272 C   0  0  0  0  0  0  0  0  0  0  0  0
   -3.4891   -0.0124    0.4320 O   0  0  0  0  0  0  0  0  0  0  0  0
   -4.5341   -0.7957   -0.1714 C   0  0  0  0  0  0  0  0  0  0  0  0
   -4.1585   -2.2558   -0.3199 C   0  0  0  0  0  0  0  0  0  0  0  0
    5.2039    0.3508   -2.9360 H   0  0  0  0  0  0  0  0  0  0  0  0
    3.4566    0.2632   -2.6631 H   0  0  0  0  0  0  0  0  0  0  0  0
    4.3420    1.7179   -2.2061 H   0  0  0  0  0  0  0  0  0  0  0  0
    5.6013    0.3968   -0.4771 H   0  0  0  0  0  0  0  0  0  0  0  0
    4.6526   -1.0493   -0.9363 H   0  0  0  0  0  0  0  0  0  0  0  0
    2.7593   -1.2259    2.0658 H   0  0  0  0  0  0  0  0  0  0  0  0
    3.0127    0.2818    2.9835 H   0  0  0  0  0  0  0  0  0  0  0  0
    0.6956    0.0878    3.9077 H   0  0  0  0  0  0  0  0  0  0  0  0
    0.4529   -1.4070    2.9906 H   0  0  0  0  0  0  0  0  0  0  0  0
    1.6535   -1.3514    4.2900 H   0  0  0  0  0  0  0  0  0  0  0  0
   -0.0934   -2.6810   -1.4382 H   0  0  0  0  0  0  0  0  0  0  0  0
   -0.0433   -0.9107   -1.7598 H   0  0  0  0  0  0  0  0  0  0  0  0
   -1.4686    0.5311    2.3544 H   0  0  0  0  0  0  0  0  0  0  0  0
   -0.5315    2.0417    2.1692 H   0  0  0  0  0  0  0  0  0  0  0  0
   -3.5876    1.8289    2.3072 H   0  0  0  0  0  0  0  0  0  0  0  0
   -2.5335    2.4241    3.6026 H   0  0  0  0  0  0  0  0  0  0  0  0
   -2.6796    3.3295    2.0859 H   0  0  0  0  0  0  0  0  0  0  0  0
   -5.3785   -0.6650    0.5069 H   0  0  0  0  0  0  0  0  0  0  0  0
   -4.7683   -0.3593   -1.1471 H   0  0  0  0  0  0  0  0  0  0  0  0
   -3.3729   -2.3622   -1.0665 H   0  0  0  0  0  0  0  0  0  0  0  0
   -3.8057   -2.6567    0.6269 H   0  0  0  0  0  0  0  0  0  0  0  0
   -5.0293   -2.8146   -0.6473 H   0  0  0  0  0  0  0  0  0  0  0  0
  1  2  1  0  0  0  0
  2  3  1  0  0  0  0
  3  4  2  0  0  0  0
  4  5  2  0  0  0  0
  4  6  2  0  0  0  0
  6  7  1  0  0  0  0
  7  8  1  0  0  0  0
  4  9  1  0  0  0  0
  9 10  1  0  0  0  0
 10 11  1  0  0  0  0
 11 12  1  0  0  0  0
 12 13  2  0  0  0  0
 12 14  2  0  0  0  0
 14 15  1  0  0  0  0
 15 16  1  0  0  0  0
 12 17  2  0  0  0  0
 17 18  1  0  0  0  0
 18 19  1  0  0  0  0
  1 20  1  0  0  0  0
  1 21  1  0  0  0  0
  1 22  1  0  0  0  0
  2 23  1  0  0  0  0
  2 24  1  0  0  0  0
  7 25  1  0  0  0  0
  7 26  1  0  0  0  0
  8 27  1  0  0  0  0
  8 28  1  0  0  0  0
  8 29  1  0  0  0  0
 10 30  1  0  0  0  0
 10 31  1  0  0  0  0
 15 32  1  0  0  0  0
 15 33  1  0  0  0  0
 16 34  1  0  0  0  0
 16 35  1  0  0  0  0
 16 36  1  0  0  0  0
 18 37  1  0  0  0  0
 18 38  1  0  0  0  0
 19 39  1  0  0  0  0
 19 40  1  0  0  0  0
 19 41  1  0  0  0  0
M  END
