 xtb: 6.7.1 (edcfbbe)
          04032519423D

 20 20  0     0  0            999 V2000
    0.8004    1.3393   -0.9913 C   0  0  0  0  0  0  0  0  0  0  0  0
    1.4340    0.3387   -0.0130 C   0  0  0  0  0  0  0  0  0  0  0  0
    2.4439    0.1040   -0.3664 H   0  0  0  0  0  0  0  0  0  0  0  0
    0.6149   -0.9771    0.0475 C   0  0  0  0  0  0  0  0  0  0  0  0
    0.5519   -1.2870    1.0964 H   0  0  0  0  0  0  0  0  0  0  0  0
   -0.8143   -0.7534   -0.4768 C   0  0  0  0  0  0  0  0  0  0  0  0
   -0.8027   -0.7669   -1.5803 H   0  0  0  0  0  0  0  0  0  0  0  0
   -1.2964    0.6382   -0.0532 C   0  0  0  0  0  0  0  0  0  0  0  0
   -2.3399    0.7670   -0.3690 H   0  0  0  0  0  0  0  0  0  0  0  0
   -0.5670    1.6435   -0.7071 O   0  0  0  0  0  0  0  0  0  0  0  0
   -1.1848    0.7590    1.3362 O   0  0  0  0  0  0  0  0  0  0  0  0
   -1.7268   -1.7050   -0.0005 O   0  0  0  0  0  0  0  0  0  0  0  0
    1.2382   -2.0496   -0.6155 O   0  0  0  0  0  0  0  0  0  0  0  0
    1.6169    0.9009    1.2609 O   0  0  0  0  0  0  0  0  0  0  0  0
    0.8708    0.9527   -2.0148 H   0  0  0  0  0  0  0  0  0  0  0  0
    1.3281    2.2930   -0.9313 H   0  0  0  0  0  0  0  0  0  0  0  0
   -1.7231    1.5010    1.6500 H   0  0  0  0  0  0  0  0  0  0  0  0
   -1.3337   -2.5870   -0.0884 H   0  0  0  0  0  0  0  0  0  0  0  0
    1.3620   -1.8398   -1.5525 H   0  0  0  0  0  0  0  0  0  0  0  0
    0.7370    1.0460    1.6546 H   0  0  0  0  0  0  0  0  0  0  0  0
  1  2  1  0  0  0  0
  2  3  1  0  0  0  0
  2  4  1  0  0  0  0
  4  5  1  0  0  0  0
  4  6  1  0  0  0  0
  6  7  1  0  0  0  0
  6  8  1  0  0  0  0
  8  9  1  0  0  0  0
  1 10  1  0  0  0  0
  8 10  1  0  0  0  0
  8 11  1  0  0  0  0
  6 12  1  0  0  0  0
  4 13  1  0  0  0  0
  2 14  1  0  0  0  0
  1 15  1  0  0  0  0
  1 16  1  0  0  0  0
 11 17  1  0  0  0  0
 12 18  1  0  0  0  0
 13 19  1  0  0  0  0
 14 20  1  0  0  0  0
M  END
