 xtb: 6.7.1 (edcfbbe)
          04092505203D

 41 40  0     0  0            999 V2000
    4.2362   -0.7283   -2.6568 C   0  0  0  0  0  0  0  0  0  0  0  0
    4.8550   -0.7179   -1.2743 C   0  0  0  0  0  0  0  0  0  0  0  0
    3.8899   -0.9789   -0.2386 O   0  0  0  0  0  0  0  0  0  0  0  0
    2.6808    0.0031    0.0842 P   0  0  0  0  0  0  0  0  0  0  0  0
    3.0767    1.9161    0.0375 S   0  0  0  0  0  0  0  0  0  0  0  0
    2.2528   -0.4694    1.5251 O   0  0  0  0  0  0  0  0  0  0  0  0
    1.9583   -1.8514    1.8534 C   0  0  0  0  0  0  0  0  0  0  0  0
    0.9985   -1.8557    3.0253 C   0  0  0  0  0  0  0  0  0  0  0  0
    1.1247   -0.6567   -1.2158 S   0  0  0  0  0  0  0  0  0  0  0  0
    0.0287    0.7486   -0.9160 C   0  0  0  0  0  0  0  0  0  0  0  0
   -0.7922    0.6786    0.7027 S   0  0  0  0  0  0  0  0  0  0  0  0
   -2.7895    0.2196    0.0921 P   0  0  0  0  0  0  0  0  0  0  0  0
   -3.1510    0.3001   -1.8372 S   0  0  0  0  0  0  0  0  0  0  0  0
   -3.6869    1.1432    1.0142 O   0  0  0  0  0  0  0  0  0  0  0  0
   -4.0862    2.4679    0.6218 C   0  0  0  0  0  0  0  0  0  0  0  0
   -2.9153    3.4259    0.5238 C   0  0  0  0  0  0  0  0  0  0  0  0
   -3.1607   -1.1381    0.8161 O   0  0  0  0  0  0  0  0  0  0  0  0
   -3.0554   -2.4189    0.1676 C   0  0  0  0  0  0  0  0  0  0  0  0
   -1.6190   -2.8917    0.0710 C   0  0  0  0  0  0  0  0  0  0  0  0
    5.0232   -0.6595   -3.4010 H   0  0  0  0  0  0  0  0  0  0  0  0
    3.6700   -1.6432   -2.8126 H   0  0  0  0  0  0  0  0  0  0  0  0
    3.5680    0.1237   -2.7732 H   0  0  0  0  0  0  0  0  0  0  0  0
    5.3251    0.2490   -1.0706 H   0  0  0  0  0  0  0  0  0  0  0  0
    5.5854   -1.5192   -1.1533 H   0  0  0  0  0  0  0  0  0  0  0  0
    1.5256   -2.3370    0.9733 H   0  0  0  0  0  0  0  0  0  0  0  0
    2.9030   -2.3372    2.1040 H   0  0  0  0  0  0  0  0  0  0  0  0
    0.0787   -1.3388    2.7611 H   0  0  0  0  0  0  0  0  0  0  0  0
    0.7748   -2.8815    3.3008 H   0  0  0  0  0  0  0  0  0  0  0  0
    1.4459   -1.3447    3.8729 H   0  0  0  0  0  0  0  0  0  0  0  0
   -0.7299    0.7415   -1.7023 H   0  0  0  0  0  0  0  0  0  0  0  0
    0.6257    1.6608   -0.9440 H   0  0  0  0  0  0  0  0  0  0  0  0
   -4.6089    2.4026   -0.3379 H   0  0  0  0  0  0  0  0  0  0  0  0
   -4.7853    2.7698    1.4030 H   0  0  0  0  0  0  0  0  0  0  0  0
   -2.2726    3.1502   -0.3118 H   0  0  0  0  0  0  0  0  0  0  0  0
   -3.2886    4.4318    0.3591 H   0  0  0  0  0  0  0  0  0  0  0  0
   -2.3297    3.4053    1.4398 H   0  0  0  0  0  0  0  0  0  0  0  0
   -3.6532   -3.0796    0.7972 H   0  0  0  0  0  0  0  0  0  0  0  0
   -3.5073   -2.3470   -0.8272 H   0  0  0  0  0  0  0  0  0  0  0  0
   -1.0555   -2.2509   -0.6067 H   0  0  0  0  0  0  0  0  0  0  0  0
   -1.1521   -2.8732    1.0522 H   0  0  0  0  0  0  0  0  0  0  0  0
   -1.6014   -3.9056   -0.3158 H   0  0  0  0  0  0  0  0  0  0  0  0
  1  2  1  0  0  0  0
  2  3  1  0  0  0  0
  3  4  2  0  0  0  0
  4  5  2  0  0  0  0
  4  6  2  0  0  0  0
  6  7  1  0  0  0  0
  7  8  1  0  0  0  0
  4  9  1  0  0  0  0
  9 10  1  0  0  0  0
 10 11  1  0  0  0  0
 11 12  1  0  0  0  0
 12 13  2  0  0  0  0
 12 14  2  0  0  0  0
 14 15  1  0  0  0  0
 15 16  1  0  0  0  0
 12 17  2  0  0  0  0
 17 18  1  0  0  0  0
 18 19  1  0  0  0  0
  1 20  1  0  0  0  0
  1 21  1  0  0  0  0
  1 22  1  0  0  0  0
  2 23  1  0  0  0  0
  2 24  1  0  0  0  0
  7 25  1  0  0  0  0
  7 26  1  0  0  0  0
  8 27  1  0  0  0  0
  8 28  1  0  0  0  0
  8 29  1  0  0  0  0
 10 30  1  0  0  0  0
 10 31  1  0  0  0  0
 15 32  1  0  0  0  0
 15 33  1  0  0  0  0
 16 34  1  0  0  0  0
 16 35  1  0  0  0  0
 16 36  1  0  0  0  0
 18 37  1  0  0  0  0
 18 38  1  0  0  0  0
 19 39  1  0  0  0  0
 19 40  1  0  0  0  0
 19 41  1  0  0  0  0
M  END
