 xtb: 6.7.1 (edcfbbe)
          04092505213D

 41 40  0     0  0            999 V2000
    4.5447   -0.9146   -2.1909 C   0  0  0  0  0  0  0  0  0  0  0  0
    3.2227   -1.6259   -1.9964 C   0  0  0  0  0  0  0  0  0  0  0  0
    2.7282   -1.4406   -0.6555 O   0  0  0  0  0  0  0  0  0  0  0  0
    2.1203   -0.0626   -0.1630 P   0  0  0  0  0  0  0  0  0  0  0  0
    1.3051    0.9893   -1.6100 S   0  0  0  0  0  0  0  0  0  0  0  0
    3.3684    0.6250    0.5412 O   0  0  0  0  0  0  0  0  0  0  0  0
    3.3058    1.5969    1.5988 C   0  0  0  0  0  0  0  0  0  0  0  0
    2.4092    2.7725    1.2692 C   0  0  0  0  0  0  0  0  0  0  0  0
    1.0108   -0.7721    1.5025 S   0  0  0  0  0  0  0  0  0  0  0  0
    0.0651   -2.0901    0.6887 C   0  0  0  0  0  0  0  0  0  0  0  0
   -0.9209   -1.5518   -0.7360 S   0  0  0  0  0  0  0  0  0  0  0  0
   -2.1147   -0.0719    0.2085 P   0  0  0  0  0  0  0  0  0  0  0  0
   -1.3899    1.6587    0.7953 S   0  0  0  0  0  0  0  0  0  0  0  0
   -2.6865   -0.9468    1.3998 O   0  0  0  0  0  0  0  0  0  0  0  0
   -3.2310   -0.3532    2.5948 C   0  0  0  0  0  0  0  0  0  0  0  0
   -4.5864    0.2648    2.3257 C   0  0  0  0  0  0  0  0  0  0  0  0
   -3.3623    0.0195   -0.7720 O   0  0  0  0  0  0  0  0  0  0  0  0
   -3.3014    0.2144   -2.1950 C   0  0  0  0  0  0  0  0  0  0  0  0
   -2.4973    1.4359   -2.5900 C   0  0  0  0  0  0  0  0  0  0  0  0
    4.3997    0.1589   -2.0734 H   0  0  0  0  0  0  0  0  0  0  0  0
    5.2662   -1.2522   -1.4520 H   0  0  0  0  0  0  0  0  0  0  0  0
    4.9222   -1.1158   -3.1884 H   0  0  0  0  0  0  0  0  0  0  0  0
    3.3215   -2.7073   -2.0969 H   0  0  0  0  0  0  0  0  0  0  0  0
    2.4727   -1.2505   -2.7004 H   0  0  0  0  0  0  0  0  0  0  0  0
    2.9610    1.0918    2.5061 H   0  0  0  0  0  0  0  0  0  0  0  0
    4.3445    1.9098    1.7203 H   0  0  0  0  0  0  0  0  0  0  0  0
    1.3717    2.4486    1.1764 H   0  0  0  0  0  0  0  0  0  0  0  0
    2.4715    3.5095    2.0633 H   0  0  0  0  0  0  0  0  0  0  0  0
    2.7103    3.2295    0.3292 H   0  0  0  0  0  0  0  0  0  0  0  0
   -0.5929   -2.5006    1.4514 H   0  0  0  0  0  0  0  0  0  0  0  0
    0.7496   -2.8456    0.3093 H   0  0  0  0  0  0  0  0  0  0  0  0
   -3.2929   -1.1829    3.2999 H   0  0  0  0  0  0  0  0  0  0  0  0
   -2.5270    0.4005    2.9626 H   0  0  0  0  0  0  0  0  0  0  0  0
   -4.9985    0.6539    3.2514 H   0  0  0  0  0  0  0  0  0  0  0  0
   -4.4777    1.0809    1.6120 H   0  0  0  0  0  0  0  0  0  0  0  0
   -5.2621   -0.4765    1.9079 H   0  0  0  0  0  0  0  0  0  0  0  0
   -2.8783   -0.6882   -2.6462 H   0  0  0  0  0  0  0  0  0  0  0  0
   -4.3492    0.3169   -2.4835 H   0  0  0  0  0  0  0  0  0  0  0  0
   -1.4479    1.3065   -2.3226 H   0  0  0  0  0  0  0  0  0  0  0  0
   -2.5647    1.5823   -3.6631 H   0  0  0  0  0  0  0  0  0  0  0  0
   -2.8738    2.3204   -2.0814 H   0  0  0  0  0  0  0  0  0  0  0  0
  1  2  1  0  0  0  0
  2  3  1  0  0  0  0
  3  4  2  0  0  0  0
  4  5  2  0  0  0  0
  4  6  2  0  0  0  0
  6  7  1  0  0  0  0
  7  8  1  0  0  0  0
  4  9  1  0  0  0  0
  9 10  1  0  0  0  0
 10 11  1  0  0  0  0
 11 12  1  0  0  0  0
 12 13  2  0  0  0  0
 12 14  2  0  0  0  0
 14 15  1  0  0  0  0
 15 16  1  0  0  0  0
 12 17  2  0  0  0  0
 17 18  1  0  0  0  0
 18 19  1  0  0  0  0
  1 20  1  0  0  0  0
  1 21  1  0  0  0  0
  1 22  1  0  0  0  0
  2 23  1  0  0  0  0
  2 24  1  0  0  0  0
  7 25  1  0  0  0  0
  7 26  1  0  0  0  0
  8 27  1  0  0  0  0
  8 28  1  0  0  0  0
  8 29  1  0  0  0  0
 10 30  1  0  0  0  0
 10 31  1  0  0  0  0
 15 32  1  0  0  0  0
 15 33  1  0  0  0  0
 16 34  1  0  0  0  0
 16 35  1  0  0  0  0
 16 36  1  0  0  0  0
 18 37  1  0  0  0  0
 18 38  1  0  0  0  0
 19 39  1  0  0  0  0
 19 40  1  0  0  0  0
 19 41  1  0  0  0  0
M  END
