 xtb: 6.7.1 (edcfbbe)
          04092505213D

 41 40  0     0  0            999 V2000
    5.6847   -0.6159   -0.2104 C   0  0  0  0  0  0  0  0  0  0  0  0
    4.6553   -1.7265   -0.2448 C   0  0  0  0  0  0  0  0  0  0  0  0
    3.4370   -1.3229   -0.9095 O   0  0  0  0  0  0  0  0  0  0  0  0
    2.4975   -0.1566   -0.4068 P   0  0  0  0  0  0  0  0  0  0  0  0
    2.9601    1.7008   -0.8589 S   0  0  0  0  0  0  0  0  0  0  0  0
    2.4434   -0.4485    1.1572 O   0  0  0  0  0  0  0  0  0  0  0  0
    1.9149    0.4691    2.1339 C   0  0  0  0  0  0  0  0  0  0  0  0
    0.6766   -0.1199    2.7795 C   0  0  0  0  0  0  0  0  0  0  0  0
    0.7189   -0.8827   -1.3058 S   0  0  0  0  0  0  0  0  0  0  0  0
   -0.0580    0.7158   -1.6583 C   0  0  0  0  0  0  0  0  0  0  0  0
   -0.8309    1.4726   -0.2084 S   0  0  0  0  0  0  0  0  0  0  0  0
   -2.5330    0.2154   -0.1856 P   0  0  0  0  0  0  0  0  0  0  0  0
   -3.3687   -0.1352   -1.9169 S   0  0  0  0  0  0  0  0  0  0  0  0
   -3.5476    0.8836    0.8273 O   0  0  0  0  0  0  0  0  0  0  0  0
   -3.2763    1.0880    2.2375 C   0  0  0  0  0  0  0  0  0  0  0  0
   -2.7151    2.4720    2.4924 C   0  0  0  0  0  0  0  0  0  0  0  0
   -1.9166   -1.0635    0.5561 O   0  0  0  0  0  0  0  0  0  0  0  0
   -2.3820   -2.3986    0.2897 C   0  0  0  0  0  0  0  0  0  0  0  0
   -3.7269   -2.6485    0.9412 C   0  0  0  0  0  0  0  0  0  0  0  0
    5.3148    0.2212    0.3803 H   0  0  0  0  0  0  0  0  0  0  0  0
    6.6028   -0.9869    0.2341 H   0  0  0  0  0  0  0  0  0  0  0  0
    5.8903   -0.2599   -1.2172 H   0  0  0  0  0  0  0  0  0  0  0  0
    4.4034   -2.0591    0.7643 H   0  0  0  0  0  0  0  0  0  0  0  0
    4.9992   -2.5732   -0.8412 H   0  0  0  0  0  0  0  0  0  0  0  0
    2.7119    0.6077    2.8677 H   0  0  0  0  0  0  0  0  0  0  0  0
    1.7011    1.4279    1.6504 H   0  0  0  0  0  0  0  0  0  0  0  0
   -0.0940   -0.2889    2.0317 H   0  0  0  0  0  0  0  0  0  0  0  0
    0.9185   -1.0678    3.2518 H   0  0  0  0  0  0  0  0  0  0  0  0
    0.3040    0.5728    3.5272 H   0  0  0  0  0  0  0  0  0  0  0  0
   -0.8206    0.5414   -2.4180 H   0  0  0  0  0  0  0  0  0  0  0  0
    0.7017    1.4163   -2.0079 H   0  0  0  0  0  0  0  0  0  0  0  0
   -4.2510    0.9643    2.7124 H   0  0  0  0  0  0  0  0  0  0  0  0
   -2.5915    0.3110    2.5842 H   0  0  0  0  0  0  0  0  0  0  0  0
   -1.7430    2.5866    2.0171 H   0  0  0  0  0  0  0  0  0  0  0  0
   -3.3873    3.2260    2.0924 H   0  0  0  0  0  0  0  0  0  0  0  0
   -2.6092    2.6193    3.5626 H   0  0  0  0  0  0  0  0  0  0  0  0
   -2.4437   -2.5372   -0.7941 H   0  0  0  0  0  0  0  0  0  0  0  0
   -1.6009   -3.0415    0.6973 H   0  0  0  0  0  0  0  0  0  0  0  0
   -4.4678   -1.9678    0.5219 H   0  0  0  0  0  0  0  0  0  0  0  0
   -4.0376   -3.6699    0.7457 H   0  0  0  0  0  0  0  0  0  0  0  0
   -3.6663   -2.4895    2.0146 H   0  0  0  0  0  0  0  0  0  0  0  0
  1  2  1  0  0  0  0
  2  3  1  0  0  0  0
  3  4  2  0  0  0  0
  4  5  2  0  0  0  0
  4  6  2  0  0  0  0
  6  7  1  0  0  0  0
  7  8  1  0  0  0  0
  4  9  1  0  0  0  0
  9 10  1  0  0  0  0
 10 11  1  0  0  0  0
 11 12  1  0  0  0  0
 12 13  2  0  0  0  0
 12 14  2  0  0  0  0
 14 15  1  0  0  0  0
 15 16  1  0  0  0  0
 12 17  1  0  0  0  0
 17 18  1  0  0  0  0
 18 19  1  0  0  0  0
  1 20  1  0  0  0  0
  1 21  1  0  0  0  0
  1 22  1  0  0  0  0
  2 23  1  0  0  0  0
  2 24  1  0  0  0  0
  7 25  1  0  0  0  0
  7 26  1  0  0  0  0
  8 27  1  0  0  0  0
  8 28  1  0  0  0  0
  8 29  1  0  0  0  0
 10 30  1  0  0  0  0
 10 31  1  0  0  0  0
 15 32  1  0  0  0  0
 15 33  1  0  0  0  0
 16 34  1  0  0  0  0
 16 35  1  0  0  0  0
 16 36  1  0  0  0  0
 18 37  1  0  0  0  0
 18 38  1  0  0  0  0
 19 39  1  0  0  0  0
 19 40  1  0  0  0  0
 19 41  1  0  0  0  0
M  END
