 xtb: 6.7.1 (edcfbbe)
          04092505203D

 41 40  0     0  0            999 V2000
    2.9854    0.4597   -2.9849 C   0  0  0  0  0  0  0  0  0  0  0  0
    2.6284   -0.9446   -2.5408 C   0  0  0  0  0  0  0  0  0  0  0  0
    1.7266   -0.9402   -1.4148 O   0  0  0  0  0  0  0  0  0  0  0  0
    2.1459   -0.5908    0.0707 P   0  0  0  0  0  0  0  0  0  0  0  0
    2.7430    1.2204    0.5553 S   0  0  0  0  0  0  0  0  0  0  0  0
    3.2756   -1.6929    0.3050 O   0  0  0  0  0  0  0  0  0  0  0  0
    4.1944   -1.6332    1.4073 C   0  0  0  0  0  0  0  0  0  0  0  0
    3.5019   -1.8587    2.7360 C   0  0  0  0  0  0  0  0  0  0  0  0
    0.4343   -1.3197    1.0551 S   0  0  0  0  0  0  0  0  0  0  0  0
   -0.1507    0.2088    1.8754 C   0  0  0  0  0  0  0  0  0  0  0  0
   -1.9330    0.4251    1.7441 S   0  0  0  0  0  0  0  0  0  0  0  0
   -2.1289    0.9268   -0.3222 P   0  0  0  0  0  0  0  0  0  0  0  0
   -0.4592    1.4420   -1.2118 S   0  0  0  0  0  0  0  0  0  0  0  0
   -3.1523    2.1168   -0.4185 O   0  0  0  0  0  0  0  0  0  0  0  0
   -4.5836    2.0260   -0.2067 C   0  0  0  0  0  0  0  0  0  0  0  0
   -4.9381    1.6303    1.2106 C   0  0  0  0  0  0  0  0  0  0  0  0
   -2.9844   -0.2621   -0.9495 O   0  0  0  0  0  0  0  0  0  0  0  0
   -2.6187   -1.6523   -0.9384 C   0  0  0  0  0  0  0  0  0  0  0  0
   -1.6361   -1.9857   -2.0431 C   0  0  0  0  0  0  0  0  0  0  0  0
    3.5382    0.4164   -3.9177 H   0  0  0  0  0  0  0  0  0  0  0  0
    2.0779    1.0437   -3.1269 H   0  0  0  0  0  0  0  0  0  0  0  0
    3.5942    0.9568   -2.2320 H   0  0  0  0  0  0  0  0  0  0  0  0
    3.5202   -1.5172   -2.2744 H   0  0  0  0  0  0  0  0  0  0  0  0
    2.0654   -1.4710   -3.3138 H   0  0  0  0  0  0  0  0  0  0  0  0
    4.9176   -2.4201    1.1892 H   0  0  0  0  0  0  0  0  0  0  0  0
    4.6873   -0.6557    1.3934 H   0  0  0  0  0  0  0  0  0  0  0  0
    2.9135   -2.7722    2.7061 H   0  0  0  0  0  0  0  0  0  0  0  0
    4.2468   -1.9324    3.5217 H   0  0  0  0  0  0  0  0  0  0  0  0
    2.8425   -1.0192    2.9537 H   0  0  0  0  0  0  0  0  0  0  0  0
    0.3694    1.0591    1.4265 H   0  0  0  0  0  0  0  0  0  0  0  0
    0.0559    0.1368    2.9404 H   0  0  0  0  0  0  0  0  0  0  0  0
   -4.9304    3.0336   -0.4412 H   0  0  0  0  0  0  0  0  0  0  0  0
   -4.9897    1.3152   -0.9282 H   0  0  0  0  0  0  0  0  0  0  0  0
   -4.4689    2.3050    1.9218 H   0  0  0  0  0  0  0  0  0  0  0  0
   -6.0160    1.6768    1.3309 H   0  0  0  0  0  0  0  0  0  0  0  0
   -4.6019    0.6162    1.4198 H   0  0  0  0  0  0  0  0  0  0  0  0
   -2.2042   -1.9090    0.0420 H   0  0  0  0  0  0  0  0  0  0  0  0
   -3.5671   -2.1733   -1.0838 H   0  0  0  0  0  0  0  0  0  0  0  0
   -0.6953   -1.4612   -1.8865 H   0  0  0  0  0  0  0  0  0  0  0  0
   -1.4456   -3.0540   -2.0413 H   0  0  0  0  0  0  0  0  0  0  0  0
   -2.0398   -1.6899   -3.0079 H   0  0  0  0  0  0  0  0  0  0  0  0
  1  2  1  0  0  0  0
  2  3  1  0  0  0  0
  3  4  2  0  0  0  0
  4  5  2  0  0  0  0
  4  6  2  0  0  0  0
  6  7  1  0  0  0  0
  7  8  1  0  0  0  0
  4  9  1  0  0  0  0
  9 10  1  0  0  0  0
 10 11  1  0  0  0  0
 11 12  1  0  0  0  0
 12 13  2  0  0  0  0
 12 14  2  0  0  0  0
 14 15  1  0  0  0  0
 15 16  1  0  0  0  0
 12 17  2  0  0  0  0
 17 18  1  0  0  0  0
 18 19  1  0  0  0  0
  1 20  1  0  0  0  0
  1 21  1  0  0  0  0
  1 22  1  0  0  0  0
  2 23  1  0  0  0  0
  2 24  1  0  0  0  0
  7 25  1  0  0  0  0
  7 26  1  0  0  0  0
  8 27  1  0  0  0  0
  8 28  1  0  0  0  0
  8 29  1  0  0  0  0
 10 30  1  0  0  0  0
 10 31  1  0  0  0  0
 15 32  1  0  0  0  0
 15 33  1  0  0  0  0
 16 34  1  0  0  0  0
 16 35  1  0  0  0  0
 16 36  1  0  0  0  0
 18 37  1  0  0  0  0
 18 38  1  0  0  0  0
 19 39  1  0  0  0  0
 19 40  1  0  0  0  0
 19 41  1  0  0  0  0
M  END
