 xtb: 6.7.1 (edcfbbe)
          04092505203D

 41 40  0     0  0            999 V2000
    4.6351   -1.6693   -0.5352 C   0  0  0  0  0  0  0  0  0  0  0  0
    4.6376   -0.1769   -0.2750 C   0  0  0  0  0  0  0  0  0  0  0  0
    3.4769    0.2450    0.4612 O   0  0  0  0  0  0  0  0  0  0  0  0
    2.0215    0.2752   -0.1823 P   0  0  0  0  0  0  0  0  0  0  0  0
    2.0092    0.7769   -2.0837 S   0  0  0  0  0  0  0  0  0  0  0  0
    1.2475    1.1461    0.8893 O   0  0  0  0  0  0  0  0  0  0  0  0
    1.6730    2.4325    1.3846 C   0  0  0  0  0  0  0  0  0  0  0  0
    1.8425    3.4539    0.2797 C   0  0  0  0  0  0  0  0  0  0  0  0
    1.2062   -1.6201    0.2451 S   0  0  0  0  0  0  0  0  0  0  0  0
    0.0398   -1.7985   -1.1450 C   0  0  0  0  0  0  0  0  0  0  0  0
   -1.6810   -1.9427   -0.6147 S   0  0  0  0  0  0  0  0  0  0  0  0
   -1.9570    0.0207    0.1579 P   0  0  0  0  0  0  0  0  0  0  0  0
   -1.3552    1.5081   -0.9588 S   0  0  0  0  0  0  0  0  0  0  0  0
   -1.2740    0.0185    1.5787 O   0  0  0  0  0  0  0  0  0  0  0  0
   -1.5100   -0.9796    2.6036 C   0  0  0  0  0  0  0  0  0  0  0  0
   -2.6058   -0.5384    3.5513 C   0  0  0  0  0  0  0  0  0  0  0  0
   -3.5067    0.0416    0.5173 O   0  0  0  0  0  0  0  0  0  0  0  0
   -4.5207    0.4182   -0.4310 C   0  0  0  0  0  0  0  0  0  0  0  0
   -4.6664   -0.5902   -1.5521 C   0  0  0  0  0  0  0  0  0  0  0  0
    4.4813   -2.2148    0.3923 H   0  0  0  0  0  0  0  0  0  0  0  0
    3.8358   -1.9231   -1.2297 H   0  0  0  0  0  0  0  0  0  0  0  0
    5.5856   -1.9577   -0.9722 H   0  0  0  0  0  0  0  0  0  0  0  0
    4.6680    0.3771   -1.2189 H   0  0  0  0  0  0  0  0  0  0  0  0
    5.4727    0.1213    0.3603 H   0  0  0  0  0  0  0  0  0  0  0  0
    0.8687    2.7156    2.0663 H   0  0  0  0  0  0  0  0  0  0  0  0
    2.6045    2.2918    1.9384 H   0  0  0  0  0  0  0  0  0  0  0  0
    2.0578    4.4255    0.7129 H   0  0  0  0  0  0  0  0  0  0  0  0
    2.6615    3.1664   -0.3789 H   0  0  0  0  0  0  0  0  0  0  0  0
    0.9315    3.5172   -0.3136 H   0  0  0  0  0  0  0  0  0  0  0  0
    0.2686   -2.7275   -1.6609 H   0  0  0  0  0  0  0  0  0  0  0  0
    0.1591   -0.9387   -1.8110 H   0  0  0  0  0  0  0  0  0  0  0  0
   -1.7610   -1.9296    2.1232 H   0  0  0  0  0  0  0  0  0  0  0  0
   -0.5485   -1.0704    3.1132 H   0  0  0  0  0  0  0  0  0  0  0  0
   -2.3629    0.4301    3.9798 H   0  0  0  0  0  0  0  0  0  0  0  0
   -3.5525   -0.4616    3.0237 H   0  0  0  0  0  0  0  0  0  0  0  0
   -2.6971   -1.2703    4.3478 H   0  0  0  0  0  0  0  0  0  0  0  0
   -5.4277    0.4833    0.1717 H   0  0  0  0  0  0  0  0  0  0  0  0
   -4.2682    1.4053   -0.8309 H   0  0  0  0  0  0  0  0  0  0  0  0
   -3.7845   -0.5704   -2.1902 H   0  0  0  0  0  0  0  0  0  0  0  0
   -4.7845   -1.5923   -1.1476 H   0  0  0  0  0  0  0  0  0  0  0  0
   -5.5362   -0.3363   -2.1495 H   0  0  0  0  0  0  0  0  0  0  0  0
  1  2  1  0  0  0  0
  2  3  1  0  0  0  0
  3  4  2  0  0  0  0
  4  5  2  0  0  0  0
  4  6  2  0  0  0  0
  6  7  1  0  0  0  0
  7  8  1  0  0  0  0
  4  9  1  0  0  0  0
  9 10  1  0  0  0  0
 10 11  1  0  0  0  0
 11 12  1  0  0  0  0
 12 13  2  0  0  0  0
 12 14  2  0  0  0  0
 14 15  1  0  0  0  0
 15 16  1  0  0  0  0
 12 17  2  0  0  0  0
 17 18  1  0  0  0  0
 18 19  1  0  0  0  0
  1 20  1  0  0  0  0
  1 21  1  0  0  0  0
  1 22  1  0  0  0  0
  2 23  1  0  0  0  0
  2 24  1  0  0  0  0
  7 25  1  0  0  0  0
  7 26  1  0  0  0  0
  8 27  1  0  0  0  0
  8 28  1  0  0  0  0
  8 29  1  0  0  0  0
 10 30  1  0  0  0  0
 10 31  1  0  0  0  0
 15 32  1  0  0  0  0
 15 33  1  0  0  0  0
 16 34  1  0  0  0  0
 16 35  1  0  0  0  0
 16 36  1  0  0  0  0
 18 37  1  0  0  0  0
 18 38  1  0  0  0  0
 19 39  1  0  0  0  0
 19 40  1  0  0  0  0
 19 41  1  0  0  0  0
M  END
