 xtb: 6.7.1 (edcfbbe)
          04092505203D

 41 40  0     0  0            999 V2000
    3.3446    0.2254   -2.5358 C   0  0  0  0  0  0  0  0  0  0  0  0
    1.9443    0.6213   -2.1214 C   0  0  0  0  0  0  0  0  0  0  0  0
    1.3458   -0.3580   -1.2514 O   0  0  0  0  0  0  0  0  0  0  0  0
    1.8970   -0.6463    0.2031 P   0  0  0  0  0  0  0  0  0  0  0  0
    2.6046    0.8726    1.2290 S   0  0  0  0  0  0  0  0  0  0  0  0
    2.9249   -1.8217   -0.1058 O   0  0  0  0  0  0  0  0  0  0  0  0
    3.7073   -2.4525    0.9273 C   0  0  0  0  0  0  0  0  0  0  0  0
    5.0843   -1.8244    1.0233 C   0  0  0  0  0  0  0  0  0  0  0  0
    0.3228   -1.7167    1.0917 S   0  0  0  0  0  0  0  0  0  0  0  0
   -0.4981   -0.4129    2.0695 C   0  0  0  0  0  0  0  0  0  0  0  0
   -2.2126   -0.1473    1.5717 S   0  0  0  0  0  0  0  0  0  0  0  0
   -1.8461    0.8577   -0.2668 P   0  0  0  0  0  0  0  0  0  0  0  0
   -0.4394    2.2161   -0.1804 S   0  0  0  0  0  0  0  0  0  0  0  0
   -3.2909    1.3998   -0.6407 O   0  0  0  0  0  0  0  0  0  0  0  0
   -3.9029    2.4715    0.1076 C   0  0  0  0  0  0  0  0  0  0  0  0
   -5.0556    3.0113   -0.7140 C   0  0  0  0  0  0  0  0  0  0  0  0
   -1.5903   -0.2027   -1.3997 O   0  0  0  0  0  0  0  0  0  0  0  0
   -2.5555   -1.2051   -1.8238 C   0  0  0  0  0  0  0  0  0  0  0  0
   -2.2192   -2.5615   -1.2389 C   0  0  0  0  0  0  0  0  0  0  0  0
    3.9997    0.2313   -1.6654 H   0  0  0  0  0  0  0  0  0  0  0  0
    3.3397   -0.7720   -2.9677 H   0  0  0  0  0  0  0  0  0  0  0  0
    3.7178    0.9382   -3.2645 H   0  0  0  0  0  0  0  0  0  0  0  0
    1.2590    0.6661   -2.9694 H   0  0  0  0  0  0  0  0  0  0  0  0
    1.9453    1.5882   -1.6065 H   0  0  0  0  0  0  0  0  0  0  0  0
    3.1762   -2.3769    1.8805 H   0  0  0  0  0  0  0  0  0  0  0  0
    3.7671   -3.4999    0.6260 H   0  0  0  0  0  0  0  0  0  0  0  0
    5.6674   -2.3542    1.7694 H   0  0  0  0  0  0  0  0  0  0  0  0
    5.5900   -1.8821    0.0635 H   0  0  0  0  0  0  0  0  0  0  0  0
    5.0005   -0.7798    1.3158 H   0  0  0  0  0  0  0  0  0  0  0  0
    0.0702    0.5159    1.9654 H   0  0  0  0  0  0  0  0  0  0  0  0
   -0.5301   -0.7403    3.1053 H   0  0  0  0  0  0  0  0  0  0  0  0
   -4.2455    2.0659    1.0630 H   0  0  0  0  0  0  0  0  0  0  0  0
   -3.1465    3.2407    0.2944 H   0  0  0  0  0  0  0  0  0  0  0  0
   -5.7800    2.2243   -0.9015 H   0  0  0  0  0  0  0  0  0  0  0  0
   -5.5337    3.8172   -0.1673 H   0  0  0  0  0  0  0  0  0  0  0  0
   -4.6911    3.3899   -1.6649 H   0  0  0  0  0  0  0  0  0  0  0  0
   -3.5555   -0.8790   -1.5349 H   0  0  0  0  0  0  0  0  0  0  0  0
   -2.4687   -1.2104   -2.9114 H   0  0  0  0  0  0  0  0  0  0  0  0
   -1.1874   -2.8203   -1.4633 H   0  0  0  0  0  0  0  0  0  0  0  0
   -2.3491   -2.5641   -0.1593 H   0  0  0  0  0  0  0  0  0  0  0  0
   -2.8778   -3.3051   -1.6765 H   0  0  0  0  0  0  0  0  0  0  0  0
  1  2  1  0  0  0  0
  2  3  1  0  0  0  0
  3  4  2  0  0  0  0
  4  5  2  0  0  0  0
  4  6  2  0  0  0  0
  6  7  1  0  0  0  0
  7  8  1  0  0  0  0
  4  9  1  0  0  0  0
  9 10  1  0  0  0  0
 10 11  1  0  0  0  0
 11 12  1  0  0  0  0
 12 13  2  0  0  0  0
 12 14  2  0  0  0  0
 14 15  1  0  0  0  0
 15 16  1  0  0  0  0
 12 17  2  0  0  0  0
 17 18  1  0  0  0  0
 18 19  1  0  0  0  0
  1 20  1  0  0  0  0
  1 21  1  0  0  0  0
  1 22  1  0  0  0  0
  2 23  1  0  0  0  0
  2 24  1  0  0  0  0
  7 25  1  0  0  0  0
  7 26  1  0  0  0  0
  8 27  1  0  0  0  0
  8 28  1  0  0  0  0
  8 29  1  0  0  0  0
 10 30  1  0  0  0  0
 10 31  1  0  0  0  0
 15 32  1  0  0  0  0
 15 33  1  0  0  0  0
 16 34  1  0  0  0  0
 16 35  1  0  0  0  0
 16 36  1  0  0  0  0
 18 37  1  0  0  0  0
 18 38  1  0  0  0  0
 19 39  1  0  0  0  0
 19 40  1  0  0  0  0
 19 41  1  0  0  0  0
M  END
