 xtb: 6.7.1 (edcfbbe)
          04092505203D

 41 40  0     0  0            999 V2000
    5.7732   -0.0851    0.1891 C   0  0  0  0  0  0  0  0  0  0  0  0
    4.4539   -0.7367   -0.1740 C   0  0  0  0  0  0  0  0  0  0  0  0
    3.3900    0.0545    0.3903 O   0  0  0  0  0  0  0  0  0  0  0  0
    1.9365    0.1098   -0.2555 P   0  0  0  0  0  0  0  0  0  0  0  0
    1.9553    0.2067   -2.2201 S   0  0  0  0  0  0  0  0  0  0  0  0
    1.2733    1.2495    0.6147 O   0  0  0  0  0  0  0  0  0  0  0  0
    1.8520    2.5511    0.8506 C   0  0  0  0  0  0  0  0  0  0  0  0
    2.1269    3.3024   -0.4346 C   0  0  0  0  0  0  0  0  0  0  0  0
    1.0007   -1.6079    0.5168 S   0  0  0  0  0  0  0  0  0  0  0  0
   -0.1889   -1.9813   -0.8154 C   0  0  0  0  0  0  0  0  0  0  0  0
   -1.8985   -1.9577   -0.2512 S   0  0  0  0  0  0  0  0  0  0  0  0
   -2.0460    0.1243    0.1777 P   0  0  0  0  0  0  0  0  0  0  0  0
   -1.3275    1.2891   -1.2258 S   0  0  0  0  0  0  0  0  0  0  0  0
   -1.3272    0.4450    1.5434 O   0  0  0  0  0  0  0  0  0  0  0  0
   -1.7976    0.1041    2.8721 C   0  0  0  0  0  0  0  0  0  0  0  0
   -1.8110   -1.3887    3.1294 C   0  0  0  0  0  0  0  0  0  0  0  0
   -3.5732    0.2983    0.5745 O   0  0  0  0  0  0  0  0  0  0  0  0
   -4.6895   -0.2313   -0.1657 C   0  0  0  0  0  0  0  0  0  0  0  0
   -4.7110    0.2317   -1.6069 C   0  0  0  0  0  0  0  0  0  0  0  0
    5.8330    0.9101   -0.2432 H   0  0  0  0  0  0  0  0  0  0  0  0
    5.8647   -0.0078    1.2687 H   0  0  0  0  0  0  0  0  0  0  0  0
    6.5854   -0.6910   -0.1984 H   0  0  0  0  0  0  0  0  0  0  0  0
    4.3775   -1.7436    0.2435 H   0  0  0  0  0  0  0  0  0  0  0  0
    4.3148   -0.7843   -1.2596 H   0  0  0  0  0  0  0  0  0  0  0  0
    1.0932    3.0562    1.4513 H   0  0  0  0  0  0  0  0  0  0  0  0
    2.7662    2.4153    1.4331 H   0  0  0  0  0  0  0  0  0  0  0  0
    2.8952    2.7908   -1.0134 H   0  0  0  0  0  0  0  0  0  0  0  0
    1.2217    3.3535   -1.0378 H   0  0  0  0  0  0  0  0  0  0  0  0
    2.4638    4.3080   -0.2037 H   0  0  0  0  0  0  0  0  0  0  0  0
    0.0001   -2.9934   -1.1638 H   0  0  0  0  0  0  0  0  0  0  0  0
   -0.0451   -1.2536   -1.6200 H   0  0  0  0  0  0  0  0  0  0  0  0
   -1.0818    0.6123    3.5205 H   0  0  0  0  0  0  0  0  0  0  0  0
   -2.7912    0.5367    3.0016 H   0  0  0  0  0  0  0  0  0  0  0  0
   -2.5775   -1.8766    2.5318 H   0  0  0  0  0  0  0  0  0  0  0  0
   -0.8441   -1.8237    2.8852 H   0  0  0  0  0  0  0  0  0  0  0  0
   -2.0222   -1.5592    4.1805 H   0  0  0  0  0  0  0  0  0  0  0  0
   -4.6476   -1.3225   -0.1117 H   0  0  0  0  0  0  0  0  0  0  0  0
   -5.5574    0.1369    0.3844 H   0  0  0  0  0  0  0  0  0  0  0  0
   -4.6891    1.3178   -1.6581 H   0  0  0  0  0  0  0  0  0  0  0  0
   -3.8415   -0.1523   -2.1385 H   0  0  0  0  0  0  0  0  0  0  0  0
   -5.6112   -0.1342   -2.0900 H   0  0  0  0  0  0  0  0  0  0  0  0
  1  2  1  0  0  0  0
  2  3  1  0  0  0  0
  3  4  2  0  0  0  0
  4  5  2  0  0  0  0
  4  6  2  0  0  0  0
  6  7  1  0  0  0  0
  7  8  1  0  0  0  0
  4  9  1  0  0  0  0
  9 10  1  0  0  0  0
 10 11  1  0  0  0  0
 11 12  1  0  0  0  0
 12 13  2  0  0  0  0
 12 14  2  0  0  0  0
 14 15  1  0  0  0  0
 15 16  1  0  0  0  0
 12 17  2  0  0  0  0
 17 18  1  0  0  0  0
 18 19  1  0  0  0  0
  1 20  1  0  0  0  0
  1 21  1  0  0  0  0
  1 22  1  0  0  0  0
  2 23  1  0  0  0  0
  2 24  1  0  0  0  0
  7 25  1  0  0  0  0
  7 26  1  0  0  0  0
  8 27  1  0  0  0  0
  8 28  1  0  0  0  0
  8 29  1  0  0  0  0
 10 30  1  0  0  0  0
 10 31  1  0  0  0  0
 15 32  1  0  0  0  0
 15 33  1  0  0  0  0
 16 34  1  0  0  0  0
 16 35  1  0  0  0  0
 16 36  1  0  0  0  0
 18 37  1  0  0  0  0
 18 38  1  0  0  0  0
 19 39  1  0  0  0  0
 19 40  1  0  0  0  0
 19 41  1  0  0  0  0
M  END
