 xtb: 6.7.1 (edcfbbe)
          04092505213D

 41 40  0     0  0            999 V2000
    2.4193    0.4015    3.3805 C   0  0  0  0  0  0  0  0  0  0  0  0
    1.7270    0.6572    2.0559 C   0  0  0  0  0  0  0  0  0  0  0  0
    2.5835    0.2035    0.9952 O   0  0  0  0  0  0  0  0  0  0  0  0
    2.1473   -0.7048   -0.2367 P   0  0  0  0  0  0  0  0  0  0  0  0
    0.5705   -1.8338    0.0921 S   0  0  0  0  0  0  0  0  0  0  0  0
    3.5075   -1.4108   -0.6231 O   0  0  0  0  0  0  0  0  0  0  0  0
    4.4251   -1.9727    0.3407 C   0  0  0  0  0  0  0  0  0  0  0  0
    3.8170   -3.1340    1.0999 C   0  0  0  0  0  0  0  0  0  0  0  0
    2.0641    0.5353   -1.9427 S   0  0  0  0  0  0  0  0  0  0  0  0
    0.2819    0.8393   -2.0010 C   0  0  0  0  0  0  0  0  0  0  0  0
   -0.3263    1.7491   -0.5357 S   0  0  0  0  0  0  0  0  0  0  0  0
   -2.0485    0.6030   -0.0774 P   0  0  0  0  0  0  0  0  0  0  0  0
   -2.6302   -0.7409   -1.3861 S   0  0  0  0  0  0  0  0  0  0  0  0
   -3.1519    1.6969    0.2661 O   0  0  0  0  0  0  0  0  0  0  0  0
   -4.0418    2.2408   -0.7219 C   0  0  0  0  0  0  0  0  0  0  0  0
   -3.3113    3.0622   -1.7650 C   0  0  0  0  0  0  0  0  0  0  0  0
   -1.6667    0.1204    1.3807 O   0  0  0  0  0  0  0  0  0  0  0  0
   -2.2942   -1.0152    2.0098 C   0  0  0  0  0  0  0  0  0  0  0  0
   -3.7734   -0.7941    2.2415 C   0  0  0  0  0  0  0  0  0  0  0  0
    1.8039    0.7955    4.1825 H   0  0  0  0  0  0  0  0  0  0  0  0
    2.5633   -0.6653    3.5324 H   0  0  0  0  0  0  0  0  0  0  0  0
    3.3867    0.8954    3.3949 H   0  0  0  0  0  0  0  0  0  0  0  0
    1.5509    1.7233    1.8942 H   0  0  0  0  0  0  0  0  0  0  0  0
    0.7722    0.1240    1.9981 H   0  0  0  0  0  0  0  0  0  0  0  0
    5.2705   -2.2919   -0.2708 H   0  0  0  0  0  0  0  0  0  0  0  0
    4.7374   -1.1785    1.0221 H   0  0  0  0  0  0  0  0  0  0  0  0
    2.9592   -2.7944    1.6795 H   0  0  0  0  0  0  0  0  0  0  0  0
    3.4775   -3.9016    0.4083 H   0  0  0  0  0  0  0  0  0  0  0  0
    4.5576   -3.5561    1.7717 H   0  0  0  0  0  0  0  0  0  0  0  0
   -0.2619   -0.1071   -2.0702 H   0  0  0  0  0  0  0  0  0  0  0  0
    0.1182    1.4503   -2.8850 H   0  0  0  0  0  0  0  0  0  0  0  0
   -4.5782    1.4124   -1.1958 H   0  0  0  0  0  0  0  0  0  0  0  0
   -4.7353    2.8506   -0.1414 H   0  0  0  0  0  0  0  0  0  0  0  0
   -4.0353    3.5517   -2.4084 H   0  0  0  0  0  0  0  0  0  0  0  0
   -2.6854    3.8116   -1.2871 H   0  0  0  0  0  0  0  0  0  0  0  0
   -2.6829    2.4121   -2.3730 H   0  0  0  0  0  0  0  0  0  0  0  0
   -2.1178   -1.8948    1.3814 H   0  0  0  0  0  0  0  0  0  0  0  0
   -1.7487   -1.1256    2.9481 H   0  0  0  0  0  0  0  0  0  0  0  0
   -3.9316    0.1284    2.7940 H   0  0  0  0  0  0  0  0  0  0  0  0
   -4.2926   -0.7278    1.2860 H   0  0  0  0  0  0  0  0  0  0  0  0
   -4.1770   -1.6302    2.8040 H   0  0  0  0  0  0  0  0  0  0  0  0
  1  2  1  0  0  0  0
  2  3  1  0  0  0  0
  3  4  2  0  0  0  0
  4  5  2  0  0  0  0
  4  6  2  0  0  0  0
  6  7  1  0  0  0  0
  7  8  1  0  0  0  0
  4  9  1  0  0  0  0
  9 10  1  0  0  0  0
 10 11  1  0  0  0  0
 11 12  1  0  0  0  0
 12 13  2  0  0  0  0
 12 14  2  0  0  0  0
 14 15  1  0  0  0  0
 15 16  1  0  0  0  0
 12 17  2  0  0  0  0
 17 18  1  0  0  0  0
 18 19  1  0  0  0  0
  1 20  1  0  0  0  0
  1 21  1  0  0  0  0
  1 22  1  0  0  0  0
  2 23  1  0  0  0  0
  2 24  1  0  0  0  0
  7 25  1  0  0  0  0
  7 26  1  0  0  0  0
  8 27  1  0  0  0  0
  8 28  1  0  0  0  0
  8 29  1  0  0  0  0
 10 30  1  0  0  0  0
 10 31  1  0  0  0  0
 15 32  1  0  0  0  0
 15 33  1  0  0  0  0
 16 34  1  0  0  0  0
 16 35  1  0  0  0  0
 16 36  1  0  0  0  0
 18 37  1  0  0  0  0
 18 38  1  0  0  0  0
 19 39  1  0  0  0  0
 19 40  1  0  0  0  0
 19 41  1  0  0  0  0
M  END
