 xtb: 6.7.1 (edcfbbe)
          04092505213D

 41 40  0     0  0            999 V2000
    3.9016   -1.8915   -1.6450 C   0  0  0  0  0  0  0  0  0  0  0  0
    4.3180   -0.5446   -1.0884 C   0  0  0  0  0  0  0  0  0  0  0  0
    3.5586   -0.1797    0.0726 O   0  0  0  0  0  0  0  0  0  0  0  0
    2.0267    0.2709    0.0534 P   0  0  0  0  0  0  0  0  0  0  0  0
    1.4866    1.0509   -1.6640 S   0  0  0  0  0  0  0  0  0  0  0  0
    1.9620    1.1750    1.3490 O   0  0  0  0  0  0  0  0  0  0  0  0
    2.0956    2.6074    1.3051 C   0  0  0  0  0  0  0  0  0  0  0  0
    3.4858    3.0353    0.8832 C   0  0  0  0  0  0  0  0  0  0  0  0
    1.0132   -1.3645    0.9458 S   0  0  0  0  0  0  0  0  0  0  0  0
    0.3302   -2.2774   -0.4669 C   0  0  0  0  0  0  0  0  0  0  0  0
   -0.9267   -1.3907   -1.4532 S   0  0  0  0  0  0  0  0  0  0  0  0
   -1.9377   -0.3047    0.0485 P   0  0  0  0  0  0  0  0  0  0  0  0
   -1.2036    1.3806    0.7552 S   0  0  0  0  0  0  0  0  0  0  0  0
   -2.2162   -1.4530    1.0931 O   0  0  0  0  0  0  0  0  0  0  0  0
   -2.4736   -1.1810    2.4869 C   0  0  0  0  0  0  0  0  0  0  0  0
   -3.8370   -0.5535    2.6821 C   0  0  0  0  0  0  0  0  0  0  0  0
   -3.3608   -0.0967   -0.6265 O   0  0  0  0  0  0  0  0  0  0  0  0
   -3.6162    0.9443   -1.5886 C   0  0  0  0  0  0  0  0  0  0  0  0
   -5.1160    1.1433   -1.6720 C   0  0  0  0  0  0  0  0  0  0  0  0
    4.6105   -2.2014   -2.4062 H   0  0  0  0  0  0  0  0  0  0  0  0
    3.8762   -2.6351   -0.8521 H   0  0  0  0  0  0  0  0  0  0  0  0
    2.9160   -1.8085   -2.1021 H   0  0  0  0  0  0  0  0  0  0  0  0
    4.1955    0.2352   -1.8468 H   0  0  0  0  0  0  0  0  0  0  0  0
    5.3482   -0.5587   -0.7300 H   0  0  0  0  0  0  0  0  0  0  0  0
    1.3352    3.0035    0.6235 H   0  0  0  0  0  0  0  0  0  0  0  0
    1.8627    2.9203    2.3240 H   0  0  0  0  0  0  0  0  0  0  0  0
    3.6664    2.7395   -0.1498 H   0  0  0  0  0  0  0  0  0  0  0  0
    3.5672    4.1149    0.9608 H   0  0  0  0  0  0  0  0  0  0  0  0
    4.2305    2.5665    1.5211 H   0  0  0  0  0  0  0  0  0  0  0  0
   -0.1331   -3.1602   -0.0317 H   0  0  0  0  0  0  0  0  0  0  0  0
    1.1153   -2.5556   -1.1663 H   0  0  0  0  0  0  0  0  0  0  0  0
   -2.4001   -2.1600    2.9616 H   0  0  0  0  0  0  0  0  0  0  0  0
   -1.6831   -0.5244    2.8652 H   0  0  0  0  0  0  0  0  0  0  0  0
   -4.0335   -0.4366    3.7431 H   0  0  0  0  0  0  0  0  0  0  0  0
   -3.8599    0.4264    2.2064 H   0  0  0  0  0  0  0  0  0  0  0  0
   -4.6049   -1.1790    2.2350 H   0  0  0  0  0  0  0  0  0  0  0  0
   -3.1050    1.8567   -1.2612 H   0  0  0  0  0  0  0  0  0  0  0  0
   -3.1992    0.6310   -2.5500 H   0  0  0  0  0  0  0  0  0  0  0  0
   -5.5053    1.4654   -0.7104 H   0  0  0  0  0  0  0  0  0  0  0  0
   -5.3326    1.9002   -2.4186 H   0  0  0  0  0  0  0  0  0  0  0  0
   -5.5956    0.2103   -1.9529 H   0  0  0  0  0  0  0  0  0  0  0  0
  1  2  1  0  0  0  0
  2  3  1  0  0  0  0
  3  4  2  0  0  0  0
  4  5  2  0  0  0  0
  4  6  2  0  0  0  0
  6  7  1  0  0  0  0
  7  8  1  0  0  0  0
  4  9  1  0  0  0  0
  9 10  1  0  0  0  0
 10 11  1  0  0  0  0
 11 12  1  0  0  0  0
 12 13  2  0  0  0  0
 12 14  2  0  0  0  0
 14 15  1  0  0  0  0
 15 16  1  0  0  0  0
 12 17  2  0  0  0  0
 17 18  1  0  0  0  0
 18 19  1  0  0  0  0
  1 20  1  0  0  0  0
  1 21  1  0  0  0  0
  1 22  1  0  0  0  0
  2 23  1  0  0  0  0
  2 24  1  0  0  0  0
  7 25  1  0  0  0  0
  7 26  1  0  0  0  0
  8 27  1  0  0  0  0
  8 28  1  0  0  0  0
  8 29  1  0  0  0  0
 10 30  1  0  0  0  0
 10 31  1  0  0  0  0
 15 32  1  0  0  0  0
 15 33  1  0  0  0  0
 16 34  1  0  0  0  0
 16 35  1  0  0  0  0
 16 36  1  0  0  0  0
 18 37  1  0  0  0  0
 18 38  1  0  0  0  0
 19 39  1  0  0  0  0
 19 40  1  0  0  0  0
 19 41  1  0  0  0  0
M  END
