 xtb: 6.7.1 (edcfbbe)
          04092505213D

 41 40  0     0  0            999 V2000
    1.3415    1.6241    2.7973 C   0  0  0  0  0  0  0  0  0  0  0  0
    1.7779    2.0738    1.4166 C   0  0  0  0  0  0  0  0  0  0  0  0
    2.8727    1.2955    0.9049 O   0  0  0  0  0  0  0  0  0  0  0  0
    2.7596   -0.2138    0.4390 P   0  0  0  0  0  0  0  0  0  0  0  0
    2.7179   -1.6095    1.8227 S   0  0  0  0  0  0  0  0  0  0  0  0
    4.0733   -0.1966   -0.4401 O   0  0  0  0  0  0  0  0  0  0  0  0
    4.7689   -1.4073   -0.7830 C   0  0  0  0  0  0  0  0  0  0  0  0
    3.9934   -2.2452   -1.7804 C   0  0  0  0  0  0  0  0  0  0  0  0
    1.1400   -0.2449   -0.9606 S   0  0  0  0  0  0  0  0  0  0  0  0
   -0.0058   -1.3136   -0.0467 C   0  0  0  0  0  0  0  0  0  0  0  0
   -1.2013   -0.3889    0.9396 S   0  0  0  0  0  0  0  0  0  0  0  0
   -2.4351    0.2326   -0.6920 P   0  0  0  0  0  0  0  0  0  0  0  0
   -2.5084   -0.9868   -2.2197 S   0  0  0  0  0  0  0  0  0  0  0  0
   -1.8888    1.6333   -1.1684 O   0  0  0  0  0  0  0  0  0  0  0  0
   -1.7981    2.7957   -0.3091 C   0  0  0  0  0  0  0  0  0  0  0  0
   -2.9927    3.7060   -0.5093 C   0  0  0  0  0  0  0  0  0  0  0  0
   -3.7922    0.6350    0.0298 O   0  0  0  0  0  0  0  0  0  0  0  0
   -4.5205   -0.1972    0.9523 C   0  0  0  0  0  0  0  0  0  0  0  0
   -4.8412   -1.5636    0.3846 C   0  0  0  0  0  0  0  0  0  0  0  0
    2.1961    1.5965    3.4683 H   0  0  0  0  0  0  0  0  0  0  0  0
    0.6030    2.3186    3.1846 H   0  0  0  0  0  0  0  0  0  0  0  0
    0.9008    0.6291    2.7552 H   0  0  0  0  0  0  0  0  0  0  0  0
    2.1730    3.0910    1.4360 H   0  0  0  0  0  0  0  0  0  0  0  0
    0.9455    2.0178    0.7073 H   0  0  0  0  0  0  0  0  0  0  0  0
    5.7140   -1.0577   -1.2004 H   0  0  0  0  0  0  0  0  0  0  0  0
    4.9559   -1.9761    0.1339 H   0  0  0  0  0  0  0  0  0  0  0  0
    4.6075   -3.0790   -2.1051 H   0  0  0  0  0  0  0  0  0  0  0  0
    3.0882   -2.6353   -1.3164 H   0  0  0  0  0  0  0  0  0  0  0  0
    3.7150   -1.6447   -2.6429 H   0  0  0  0  0  0  0  0  0  0  0  0
    0.5616   -1.9413    0.6441 H   0  0  0  0  0  0  0  0  0  0  0  0
   -0.5453   -1.9065   -0.7861 H   0  0  0  0  0  0  0  0  0  0  0  0
   -1.7220    2.4650    0.7309 H   0  0  0  0  0  0  0  0  0  0  0  0
   -0.8725    3.2890   -0.6130 H   0  0  0  0  0  0  0  0  0  0  0  0
   -3.9082    3.1956   -0.2233 H   0  0  0  0  0  0  0  0  0  0  0  0
   -2.8689    4.5940    0.1027 H   0  0  0  0  0  0  0  0  0  0  0  0
   -3.0671    3.9965   -1.5536 H   0  0  0  0  0  0  0  0  0  0  0  0
   -3.9306   -0.2877    1.8686 H   0  0  0  0  0  0  0  0  0  0  0  0
   -5.4293    0.3736    1.1506 H   0  0  0  0  0  0  0  0  0  0  0  0
   -5.3615   -1.4677   -0.5655 H   0  0  0  0  0  0  0  0  0  0  0  0
   -3.9248   -2.1275    0.2169 H   0  0  0  0  0  0  0  0  0  0  0  0
   -5.4673   -2.1075    1.0846 H   0  0  0  0  0  0  0  0  0  0  0  0
  1  2  1  0  0  0  0
  2  3  1  0  0  0  0
  3  4  2  0  0  0  0
  4  5  2  0  0  0  0
  4  6  2  0  0  0  0
  6  7  1  0  0  0  0
  7  8  1  0  0  0  0
  4  9  1  0  0  0  0
  9 10  1  0  0  0  0
 10 11  1  0  0  0  0
 11 12  1  0  0  0  0
 12 13  2  0  0  0  0
 12 14  2  0  0  0  0
 14 15  1  0  0  0  0
 15 16  1  0  0  0  0
 12 17  2  0  0  0  0
 17 18  1  0  0  0  0
 18 19  1  0  0  0  0
  1 20  1  0  0  0  0
  1 21  1  0  0  0  0
  1 22  1  0  0  0  0
  2 23  1  0  0  0  0
  2 24  1  0  0  0  0
  7 25  1  0  0  0  0
  7 26  1  0  0  0  0
  8 27  1  0  0  0  0
  8 28  1  0  0  0  0
  8 29  1  0  0  0  0
 10 30  1  0  0  0  0
 10 31  1  0  0  0  0
 15 32  1  0  0  0  0
 15 33  1  0  0  0  0
 16 34  1  0  0  0  0
 16 35  1  0  0  0  0
 16 36  1  0  0  0  0
 18 37  1  0  0  0  0
 18 38  1  0  0  0  0
 19 39  1  0  0  0  0
 19 40  1  0  0  0  0
 19 41  1  0  0  0  0
M  END
