 xtb: 6.7.1 (edcfbbe)
          04092505213D

 41 40  0     0  0            999 V2000
    5.6937   -0.3953   -1.0441 C   0  0  0  0  0  0  0  0  0  0  0  0
    4.2430   -0.7701   -1.2694 C   0  0  0  0  0  0  0  0  0  0  0  0
    3.4146    0.3250   -0.8021 O   0  0  0  0  0  0  0  0  0  0  0  0
    2.0239    0.1019   -0.0742 P   0  0  0  0  0  0  0  0  0  0  0  0
    1.3735    1.8225    0.5807 S   0  0  0  0  0  0  0  0  0  0  0  0
    2.2302   -1.0355    1.0278 O   0  0  0  0  0  0  0  0  0  0  0  0
    2.3698   -0.7249    2.4288 C   0  0  0  0  0  0  0  0  0  0  0  0
    3.7561   -0.1960    2.7330 C   0  0  0  0  0  0  0  0  0  0  0  0
    0.9609   -1.0319   -1.5133 S   0  0  0  0  0  0  0  0  0  0  0  0
   -0.2554   -1.8632   -0.4300 C   0  0  0  0  0  0  0  0  0  0  0  0
   -1.0146   -0.7977    0.8153 S   0  0  0  0  0  0  0  0  0  0  0  0
   -2.3409    0.2649   -0.4803 P   0  0  0  0  0  0  0  0  0  0  0  0
   -1.5330    1.4425   -1.8232 S   0  0  0  0  0  0  0  0  0  0  0  0
   -3.3676    0.9614    0.5087 O   0  0  0  0  0  0  0  0  0  0  0  0
   -3.1463    2.2632    1.0769 C   0  0  0  0  0  0  0  0  0  0  0  0
   -2.1267    2.2225    2.1965 C   0  0  0  0  0  0  0  0  0  0  0  0
   -3.2103   -0.8620   -1.1627 O   0  0  0  0  0  0  0  0  0  0  0  0
   -4.3914   -1.4875   -0.5976 C   0  0  0  0  0  0  0  0  0  0  0  0
   -4.0918   -2.3045    0.6415 C   0  0  0  0  0  0  0  0  0  0  0  0
    6.3290   -1.1858   -1.4305 H   0  0  0  0  0  0  0  0  0  0  0  0
    5.9200    0.5336   -1.5599 H   0  0  0  0  0  0  0  0  0  0  0  0
    5.8893   -0.2604    0.0162 H   0  0  0  0  0  0  0  0  0  0  0  0
    3.9737   -1.6771   -0.7226 H   0  0  0  0  0  0  0  0  0  0  0  0
    4.0252   -0.9082   -2.3308 H   0  0  0  0  0  0  0  0  0  0  0  0
    1.6064    0.0103    2.7004 H   0  0  0  0  0  0  0  0  0  0  0  0
    2.1715   -1.6713    2.9328 H   0  0  0  0  0  0  0  0  0  0  0  0
    3.9206    0.7307    2.1833 H   0  0  0  0  0  0  0  0  0  0  0  0
    3.8402    0.0058    3.7960 H   0  0  0  0  0  0  0  0  0  0  0  0
    4.5119   -0.9215    2.4430 H   0  0  0  0  0  0  0  0  0  0  0  0
    0.2466   -2.6596    0.1135 H   0  0  0  0  0  0  0  0  0  0  0  0
   -1.0184   -2.2562   -1.0997 H   0  0  0  0  0  0  0  0  0  0  0  0
   -2.8219    2.9426    0.2820 H   0  0  0  0  0  0  0  0  0  0  0  0
   -4.1315    2.5591    1.4408 H   0  0  0  0  0  0  0  0  0  0  0  0
   -1.1344    2.0154    1.7971 H   0  0  0  0  0  0  0  0  0  0  0  0
   -2.0998    3.1876    2.6919 H   0  0  0  0  0  0  0  0  0  0  0  0
   -2.3865    1.4525    2.9180 H   0  0  0  0  0  0  0  0  0  0  0  0
   -5.1191   -0.7041   -0.3809 H   0  0  0  0  0  0  0  0  0  0  0  0
   -4.7512   -2.1129   -1.4162 H   0  0  0  0  0  0  0  0  0  0  0  0
   -3.3293   -3.0510    0.4356 H   0  0  0  0  0  0  0  0  0  0  0  0
   -3.7466   -1.6599    1.4462 H   0  0  0  0  0  0  0  0  0  0  0  0
   -5.0023   -2.8051    0.9563 H   0  0  0  0  0  0  0  0  0  0  0  0
  1  2  1  0  0  0  0
  2  3  1  0  0  0  0
  3  4  2  0  0  0  0
  4  5  2  0  0  0  0
  4  6  2  0  0  0  0
  6  7  1  0  0  0  0
  7  8  1  0  0  0  0
  4  9  1  0  0  0  0
  9 10  1  0  0  0  0
 10 11  1  0  0  0  0
 11 12  1  0  0  0  0
 12 13  2  0  0  0  0
 12 14  2  0  0  0  0
 14 15  1  0  0  0  0
 15 16  1  0  0  0  0
 12 17  2  0  0  0  0
 17 18  1  0  0  0  0
 18 19  1  0  0  0  0
  1 20  1  0  0  0  0
  1 21  1  0  0  0  0
  1 22  1  0  0  0  0
  2 23  1  0  0  0  0
  2 24  1  0  0  0  0
  7 25  1  0  0  0  0
  7 26  1  0  0  0  0
  8 27  1  0  0  0  0
  8 28  1  0  0  0  0
  8 29  1  0  0  0  0
 10 30  1  0  0  0  0
 10 31  1  0  0  0  0
 15 32  1  0  0  0  0
 15 33  1  0  0  0  0
 16 34  1  0  0  0  0
 16 35  1  0  0  0  0
 16 36  1  0  0  0  0
 18 37  1  0  0  0  0
 18 38  1  0  0  0  0
 19 39  1  0  0  0  0
 19 40  1  0  0  0  0
 19 41  1  0  0  0  0
M  END
