 xtb: 6.7.1 (edcfbbe)
          04092505213D

 41 40  0     0  0            999 V2000
    2.1349   -2.1188    2.6746 C   0  0  0  0  0  0  0  0  0  0  0  0
    1.2254   -1.7054    1.5343 C   0  0  0  0  0  0  0  0  0  0  0  0
    1.4173   -0.3108    1.2429 O   0  0  0  0  0  0  0  0  0  0  0  0
    2.1671    0.2604   -0.0431 P   0  0  0  0  0  0  0  0  0  0  0  0
    3.1598   -1.0867   -1.0683 S   0  0  0  0  0  0  0  0  0  0  0  0
    2.9327    1.5173    0.5422 O   0  0  0  0  0  0  0  0  0  0  0  0
    3.8771    1.4348    1.6324 C   0  0  0  0  0  0  0  0  0  0  0  0
    5.2378    0.9570    1.1649 C   0  0  0  0  0  0  0  0  0  0  0  0
    0.7617    1.4190   -1.1175 S   0  0  0  0  0  0  0  0  0  0  0  0
    0.2158    0.1128   -2.2513 C   0  0  0  0  0  0  0  0  0  0  0  0
   -0.5229   -1.2942   -1.3767 S   0  0  0  0  0  0  0  0  0  0  0  0
   -2.1142   -0.2326   -0.4754 P   0  0  0  0  0  0  0  0  0  0  0  0
   -2.9062    1.2231   -1.5263 S   0  0  0  0  0  0  0  0  0  0  0  0
   -1.6253    0.1968    0.9804 O   0  0  0  0  0  0  0  0  0  0  0  0
   -1.5034    1.5524    1.4432 C   0  0  0  0  0  0  0  0  0  0  0  0
   -2.6269    1.8658    2.4115 C   0  0  0  0  0  0  0  0  0  0  0  0
   -2.9674   -1.5329   -0.1756 O   0  0  0  0  0  0  0  0  0  0  0  0
   -4.1140   -1.5427    0.7036 C   0  0  0  0  0  0  0  0  0  0  0  0
   -5.3622   -1.0398    0.0057 C   0  0  0  0  0  0  0  0  0  0  0  0
    1.9350   -3.1544    2.9293 H   0  0  0  0  0  0  0  0  0  0  0  0
    3.1758   -2.0248    2.3713 H   0  0  0  0  0  0  0  0  0  0  0  0
    1.9575   -1.4941    3.5459 H   0  0  0  0  0  0  0  0  0  0  0  0
    0.1704   -1.8104    1.7961 H   0  0  0  0  0  0  0  0  0  0  0  0
    1.4366   -2.2938    0.6356 H   0  0  0  0  0  0  0  0  0  0  0  0
    3.9250    2.4576    2.0104 H   0  0  0  0  0  0  0  0  0  0  0  0
    3.4706    0.7754    2.4037 H   0  0  0  0  0  0  0  0  0  0  0  0
    5.9304    0.9736    2.0006 H   0  0  0  0  0  0  0  0  0  0  0  0
    5.1735   -0.0571    0.7750 H   0  0  0  0  0  0  0  0  0  0  0  0
    5.6108    1.6045    0.3759 H   0  0  0  0  0  0  0  0  0  0  0  0
    1.0682   -0.2778   -2.8062 H   0  0  0  0  0  0  0  0  0  0  0  0
   -0.5196    0.5646   -2.9163 H   0  0  0  0  0  0  0  0  0  0  0  0
   -0.5240    1.6131    1.9223 H   0  0  0  0  0  0  0  0  0  0  0  0
   -1.5303    2.2308    0.5844 H   0  0  0  0  0  0  0  0  0  0  0  0
   -3.5839    1.8215    1.8953 H   0  0  0  0  0  0  0  0  0  0  0  0
   -2.6289    1.1540    3.2324 H   0  0  0  0  0  0  0  0  0  0  0  0
   -2.4862    2.8670    2.8055 H   0  0  0  0  0  0  0  0  0  0  0  0
   -4.2143   -2.5922    0.9864 H   0  0  0  0  0  0  0  0  0  0  0  0
   -3.8872   -0.9428    1.5888 H   0  0  0  0  0  0  0  0  0  0  0  0
   -5.2436    0.0019   -0.2860 H   0  0  0  0  0  0  0  0  0  0  0  0
   -5.5526   -1.6268   -0.8887 H   0  0  0  0  0  0  0  0  0  0  0  0
   -6.2091   -1.1263    0.6791 H   0  0  0  0  0  0  0  0  0  0  0  0
  1  2  1  0  0  0  0
  2  3  1  0  0  0  0
  3  4  2  0  0  0  0
  4  5  2  0  0  0  0
  4  6  2  0  0  0  0
  6  7  1  0  0  0  0
  7  8  1  0  0  0  0
  4  9  1  0  0  0  0
  9 10  1  0  0  0  0
 10 11  1  0  0  0  0
 11 12  1  0  0  0  0
 12 13  2  0  0  0  0
 12 14  2  0  0  0  0
 14 15  1  0  0  0  0
 15 16  1  0  0  0  0
 12 17  2  0  0  0  0
 17 18  1  0  0  0  0
 18 19  1  0  0  0  0
  1 20  1  0  0  0  0
  1 21  1  0  0  0  0
  1 22  1  0  0  0  0
  2 23  1  0  0  0  0
  2 24  1  0  0  0  0
  7 25  1  0  0  0  0
  7 26  1  0  0  0  0
  8 27  1  0  0  0  0
  8 28  1  0  0  0  0
  8 29  1  0  0  0  0
 10 30  1  0  0  0  0
 10 31  1  0  0  0  0
 15 32  1  0  0  0  0
 15 33  1  0  0  0  0
 16 34  1  0  0  0  0
 16 35  1  0  0  0  0
 16 36  1  0  0  0  0
 18 37  1  0  0  0  0
 18 38  1  0  0  0  0
 19 39  1  0  0  0  0
 19 40  1  0  0  0  0
 19 41  1  0  0  0  0
M  END
