 xtb: 6.7.1 (edcfbbe)
          04092505203D

 41 40  0     0  0            999 V2000
    4.1058   -0.6457   -2.2755 C   0  0  0  0  0  0  0  0  0  0  0  0
    4.3631   -0.8319   -0.7934 C   0  0  0  0  0  0  0  0  0  0  0  0
    3.1447   -0.8389   -0.0327 O   0  0  0  0  0  0  0  0  0  0  0  0
    2.2854    0.4888    0.1887 P   0  0  0  0  0  0  0  0  0  0  0  0
    3.3316    2.1305    0.3979 S   0  0  0  0  0  0  0  0  0  0  0  0
    1.3673    0.0882    1.4168 O   0  0  0  0  0  0  0  0  0  0  0  0
    1.7983    0.2692    2.7833 C   0  0  0  0  0  0  0  0  0  0  0  0
    2.9339   -0.6622    3.1502 C   0  0  0  0  0  0  0  0  0  0  0  0
    0.8251    0.4765   -1.3416 S   0  0  0  0  0  0  0  0  0  0  0  0
    0.2400   -1.2382   -1.1594 C   0  0  0  0  0  0  0  0  0  0  0  0
   -0.9332   -1.4798    0.1969 S   0  0  0  0  0  0  0  0  0  0  0  0
   -2.3749   -0.0602   -0.4642 P   0  0  0  0  0  0  0  0  0  0  0  0
   -2.6381    0.0833   -2.3945 S   0  0  0  0  0  0  0  0  0  0  0  0
   -1.9283    1.3138    0.1780 O   0  0  0  0  0  0  0  0  0  0  0  0
   -1.7300    1.5090    1.5971 C   0  0  0  0  0  0  0  0  0  0  0  0
   -2.9542    2.1344    2.2327 C   0  0  0  0  0  0  0  0  0  0  0  0
   -3.6685   -0.4273    0.3863 O   0  0  0  0  0  0  0  0  0  0  0  0
   -4.6443   -1.3845   -0.0671 C   0  0  0  0  0  0  0  0  0  0  0  0
   -4.0843   -2.7897   -0.1452 C   0  0  0  0  0  0  0  0  0  0  0  0
    3.4316   -1.4122   -2.6490 H   0  0  0  0  0  0  0  0  0  0  0  0
    3.6585    0.3322   -2.4541 H   0  0  0  0  0  0  0  0  0  0  0  0
    5.0465   -0.7038   -2.8136 H   0  0  0  0  0  0  0  0  0  0  0  0
    5.0029   -0.0283   -0.4148 H   0  0  0  0  0  0  0  0  0  0  0  0
    4.8157   -1.8012   -0.5799 H   0  0  0  0  0  0  0  0  0  0  0  0
    2.0963    1.3142    2.9147 H   0  0  0  0  0  0  0  0  0  0  0  0
    0.9014    0.0598    3.3678 H   0  0  0  0  0  0  0  0  0  0  0  0
    2.6687   -1.6887    2.9117 H   0  0  0  0  0  0  0  0  0  0  0  0
    3.8321   -0.3899    2.5983 H   0  0  0  0  0  0  0  0  0  0  0  0
    3.1354   -0.5779    4.2135 H   0  0  0  0  0  0  0  0  0  0  0  0
    1.0815   -1.8988   -0.9672 H   0  0  0  0  0  0  0  0  0  0  0  0
   -0.2522   -1.4730   -2.1024 H   0  0  0  0  0  0  0  0  0  0  0  0
   -1.4923    0.5451    2.0567 H   0  0  0  0  0  0  0  0  0  0  0  0
   -0.8627    2.1708    1.6642 H   0  0  0  0  0  0  0  0  0  0  0  0
   -3.8023    1.4591    2.1583 H   0  0  0  0  0  0  0  0  0  0  0  0
   -2.7460    2.3385    3.2783 H   0  0  0  0  0  0  0  0  0  0  0  0
   -3.1998    3.0644    1.7272 H   0  0  0  0  0  0  0  0  0  0  0  0
   -5.4431   -1.3098    0.6722 H   0  0  0  0  0  0  0  0  0  0  0  0
   -5.0111   -1.0618   -1.0460 H   0  0  0  0  0  0  0  0  0  0  0  0
   -3.6091   -3.0623    0.7938 H   0  0  0  0  0  0  0  0  0  0  0  0
   -4.8916   -3.4835   -0.3563 H   0  0  0  0  0  0  0  0  0  0  0  0
   -3.3481   -2.8528   -0.9447 H   0  0  0  0  0  0  0  0  0  0  0  0
  1  2  1  0  0  0  0
  2  3  1  0  0  0  0
  3  4  2  0  0  0  0
  4  5  2  0  0  0  0
  4  6  2  0  0  0  0
  6  7  1  0  0  0  0
  7  8  1  0  0  0  0
  4  9  1  0  0  0  0
  9 10  1  0  0  0  0
 10 11  1  0  0  0  0
 11 12  1  0  0  0  0
 12 13  2  0  0  0  0
 12 14  2  0  0  0  0
 14 15  1  0  0  0  0
 15 16  1  0  0  0  0
 12 17  2  0  0  0  0
 17 18  1  0  0  0  0
 18 19  1  0  0  0  0
  1 20  1  0  0  0  0
  1 21  1  0  0  0  0
  1 22  1  0  0  0  0
  2 23  1  0  0  0  0
  2 24  1  0  0  0  0
  7 25  1  0  0  0  0
  7 26  1  0  0  0  0
  8 27  1  0  0  0  0
  8 28  1  0  0  0  0
  8 29  1  0  0  0  0
 10 30  1  0  0  0  0
 10 31  1  0  0  0  0
 15 32  1  0  0  0  0
 15 33  1  0  0  0  0
 16 34  1  0  0  0  0
 16 35  1  0  0  0  0
 16 36  1  0  0  0  0
 18 37  1  0  0  0  0
 18 38  1  0  0  0  0
 19 39  1  0  0  0  0
 19 40  1  0  0  0  0
 19 41  1  0  0  0  0
M  END
