 xtb: 6.7.1 (edcfbbe)
          04092505203D

 41 40  0     0  0            999 V2000
    3.4226    2.3462   -1.4168 C   0  0  0  0  0  0  0  0  0  0  0  0
    3.7072    1.4414   -0.2348 C   0  0  0  0  0  0  0  0  0  0  0  0
    3.0436    0.1733   -0.4413 O   0  0  0  0  0  0  0  0  0  0  0  0
    2.1231   -0.5292    0.6328 P   0  0  0  0  0  0  0  0  0  0  0  0
    1.4325    0.6081    2.0781 S   0  0  0  0  0  0  0  0  0  0  0  0
    3.0878   -1.6776    1.1713 O   0  0  0  0  0  0  0  0  0  0  0  0
    2.8016   -2.4171    2.3681 C   0  0  0  0  0  0  0  0  0  0  0  0
    1.5993   -3.3224    2.1904 C   0  0  0  0  0  0  0  0  0  0  0  0
    0.8224   -1.5892   -0.6667 S   0  0  0  0  0  0  0  0  0  0  0  0
    0.5069   -0.3006   -1.9074 C   0  0  0  0  0  0  0  0  0  0  0  0
   -0.1484    1.2391   -1.2082 S   0  0  0  0  0  0  0  0  0  0  0  0
   -1.9673    0.4334   -0.5142 P   0  0  0  0  0  0  0  0  0  0  0  0
   -2.8190   -0.9427   -1.6261 S   0  0  0  0  0  0  0  0  0  0  0  0
   -2.8675    1.7039   -0.2035 O   0  0  0  0  0  0  0  0  0  0  0  0
   -3.7504    2.2808   -1.1824 C   0  0  0  0  0  0  0  0  0  0  0  0
   -2.9921    2.9420   -2.3152 C   0  0  0  0  0  0  0  0  0  0  0  0
   -1.5153   -0.0128    0.9350 O   0  0  0  0  0  0  0  0  0  0  0  0
   -2.2308   -0.9898    1.7143 C   0  0  0  0  0  0  0  0  0  0  0  0
   -3.6188   -0.5135    2.0855 C   0  0  0  0  0  0  0  0  0  0  0  0
    2.3543    2.5402   -1.4930 H   0  0  0  0  0  0  0  0  0  0  0  0
    3.9459    3.2861   -1.2757 H   0  0  0  0  0  0  0  0  0  0  0  0
    3.7652    1.8803   -2.3362 H   0  0  0  0  0  0  0  0  0  0  0  0
    3.3446    1.8828    0.6998 H   0  0  0  0  0  0  0  0  0  0  0  0
    4.7727    1.2220   -0.1439 H   0  0  0  0  0  0  0  0  0  0  0  0
    3.7134   -2.9855    2.5549 H   0  0  0  0  0  0  0  0  0  0  0  0
    2.6317   -1.7043    3.1823 H   0  0  0  0  0  0  0  0  0  0  0  0
    1.4473   -3.9087    3.0908 H   0  0  0  0  0  0  0  0  0  0  0  0
    0.7102   -2.7184    2.0048 H   0  0  0  0  0  0  0  0  0  0  0  0
    1.7474   -3.9874    1.3433 H   0  0  0  0  0  0  0  0  0  0  0  0
   -0.2257   -0.7293   -2.5922 H   0  0  0  0  0  0  0  0  0  0  0  0
    1.4318   -0.0498   -2.4198 H   0  0  0  0  0  0  0  0  0  0  0  0
   -4.4029    1.4900   -1.5666 H   0  0  0  0  0  0  0  0  0  0  0  0
   -4.3362    3.0031   -0.6123 H   0  0  0  0  0  0  0  0  0  0  0  0
   -2.2644    3.6472   -1.9211 H   0  0  0  0  0  0  0  0  0  0  0  0
   -2.4683    2.1890   -2.9028 H   0  0  0  0  0  0  0  0  0  0  0  0
   -3.6922    3.4661   -2.9579 H   0  0  0  0  0  0  0  0  0  0  0  0
   -2.2770   -1.9209    1.1392 H   0  0  0  0  0  0  0  0  0  0  0  0
   -1.6008   -1.1260    2.5955 H   0  0  0  0  0  0  0  0  0  0  0  0
   -3.5619    0.4536    2.5787 H   0  0  0  0  0  0  0  0  0  0  0  0
   -4.2292   -0.4178    1.1879 H   0  0  0  0  0  0  0  0  0  0  0  0
   -4.0803   -1.2353    2.7520 H   0  0  0  0  0  0  0  0  0  0  0  0
  1  2  1  0  0  0  0
  2  3  1  0  0  0  0
  3  4  2  0  0  0  0
  4  5  2  0  0  0  0
  4  6  2  0  0  0  0
  6  7  1  0  0  0  0
  7  8  1  0  0  0  0
  4  9  1  0  0  0  0
  9 10  1  0  0  0  0
 10 11  1  0  0  0  0
 11 12  1  0  0  0  0
 12 13  2  0  0  0  0
 12 14  2  0  0  0  0
 14 15  1  0  0  0  0
 15 16  1  0  0  0  0
 12 17  2  0  0  0  0
 17 18  1  0  0  0  0
 18 19  1  0  0  0  0
  1 20  1  0  0  0  0
  1 21  1  0  0  0  0
  1 22  1  0  0  0  0
  2 23  1  0  0  0  0
  2 24  1  0  0  0  0
  7 25  1  0  0  0  0
  7 26  1  0  0  0  0
  8 27  1  0  0  0  0
  8 28  1  0  0  0  0
  8 29  1  0  0  0  0
 10 30  1  0  0  0  0
 10 31  1  0  0  0  0
 15 32  1  0  0  0  0
 15 33  1  0  0  0  0
 16 34  1  0  0  0  0
 16 35  1  0  0  0  0
 16 36  1  0  0  0  0
 18 37  1  0  0  0  0
 18 38  1  0  0  0  0
 19 39  1  0  0  0  0
 19 40  1  0  0  0  0
 19 41  1  0  0  0  0
M  END
