 xtb: 6.7.1 (edcfbbe)
          04092505213D

 41 40  0     0  0            999 V2000
    2.1803    3.2534    1.6680 C   0  0  0  0  0  0  0  0  0  0  0  0
    1.3564    2.0237    1.3445 C   0  0  0  0  0  0  0  0  0  0  0  0
    2.2642    0.9226    1.1746 O   0  0  0  0  0  0  0  0  0  0  0  0
    1.7949   -0.5999    1.1378 P   0  0  0  0  0  0  0  0  0  0  0  0
    0.5704   -1.1628    2.5512 S   0  0  0  0  0  0  0  0  0  0  0  0
    3.1785   -1.3411    1.2688 O   0  0  0  0  0  0  0  0  0  0  0  0
    4.2674   -1.1696    0.3241 C   0  0  0  0  0  0  0  0  0  0  0  0
    4.4850   -2.4555   -0.4475 C   0  0  0  0  0  0  0  0  0  0  0  0
    1.1875   -0.9154   -0.8826 S   0  0  0  0  0  0  0  0  0  0  0  0
   -0.2977   -1.9224   -0.6060 C   0  0  0  0  0  0  0  0  0  0  0  0
   -1.7598   -1.3535   -1.5217 S   0  0  0  0  0  0  0  0  0  0  0  0
   -1.9754    0.6335   -0.7980 P   0  0  0  0  0  0  0  0  0  0  0  0
   -3.6989    1.4785   -1.1778 S   0  0  0  0  0  0  0  0  0  0  0  0
   -0.7076    1.4459   -1.3153 O   0  0  0  0  0  0  0  0  0  0  0  0
   -0.6968    2.0880   -2.6036 C   0  0  0  0  0  0  0  0  0  0  0  0
   -0.5781    1.0900   -3.7385 C   0  0  0  0  0  0  0  0  0  0  0  0
   -1.5311    0.5676    0.7288 O   0  0  0  0  0  0  0  0  0  0  0  0
   -2.5188    0.4654    1.7714 C   0  0  0  0  0  0  0  0  0  0  0  0
   -3.1659   -0.9039    1.8177 C   0  0  0  0  0  0  0  0  0  0  0  0
    2.8772    3.4570    0.8602 H   0  0  0  0  0  0  0  0  0  0  0  0
    1.5170    4.1029    1.7941 H   0  0  0  0  0  0  0  0  0  0  0  0
    2.7406    3.0954    2.5854 H   0  0  0  0  0  0  0  0  0  0  0  0
    0.7851    2.1528    0.4217 H   0  0  0  0  0  0  0  0  0  0  0  0
    0.6607    1.7799    2.1540 H   0  0  0  0  0  0  0  0  0  0  0  0
    4.0365   -0.3371   -0.3441 H   0  0  0  0  0  0  0  0  0  0  0  0
    5.1356   -0.9189    0.9352 H   0  0  0  0  0  0  0  0  0  0  0  0
    5.3664   -2.3495   -1.0718 H   0  0  0  0  0  0  0  0  0  0  0  0
    4.6317   -3.2813    0.2430 H   0  0  0  0  0  0  0  0  0  0  0  0
    3.6262   -2.6707   -1.0783 H   0  0  0  0  0  0  0  0  0  0  0  0
   -0.5050   -1.9329    0.4668 H   0  0  0  0  0  0  0  0  0  0  0  0
   -0.1169   -2.9263   -0.9822 H   0  0  0  0  0  0  0  0  0  0  0  0
   -1.6114    2.6823   -2.7011 H   0  0  0  0  0  0  0  0  0  0  0  0
    0.1705    2.7486   -2.5603 H   0  0  0  0  0  0  0  0  0  0  0  0
   -1.4838    0.4889   -3.8071 H   0  0  0  0  0  0  0  0  0  0  0  0
   -0.4405    1.6267   -4.6717 H   0  0  0  0  0  0  0  0  0  0  0  0
    0.2711    0.4308   -3.5720 H   0  0  0  0  0  0  0  0  0  0  0  0
   -1.9611    0.6675    2.6871 H   0  0  0  0  0  0  0  0  0  0  0  0
   -3.2718    1.2426    1.6086 H   0  0  0  0  0  0  0  0  0  0  0  0
   -2.4175   -1.6698    2.0079 H   0  0  0  0  0  0  0  0  0  0  0  0
   -3.8980   -0.9226    2.6185 H   0  0  0  0  0  0  0  0  0  0  0  0
   -3.6692   -1.1121    0.8737 H   0  0  0  0  0  0  0  0  0  0  0  0
  1  2  1  0  0  0  0
  2  3  1  0  0  0  0
  3  4  2  0  0  0  0
  4  5  2  0  0  0  0
  4  6  2  0  0  0  0
  6  7  1  0  0  0  0
  7  8  1  0  0  0  0
  4  9  1  0  0  0  0
  9 10  1  0  0  0  0
 10 11  1  0  0  0  0
 11 12  1  0  0  0  0
 12 13  2  0  0  0  0
 12 14  2  0  0  0  0
 14 15  1  0  0  0  0
 15 16  1  0  0  0  0
 12 17  1  0  0  0  0
 17 18  1  0  0  0  0
 18 19  1  0  0  0  0
  1 20  1  0  0  0  0
  1 21  1  0  0  0  0
  1 22  1  0  0  0  0
  2 23  1  0  0  0  0
  2 24  1  0  0  0  0
  7 25  1  0  0  0  0
  7 26  1  0  0  0  0
  8 27  1  0  0  0  0
  8 28  1  0  0  0  0
  8 29  1  0  0  0  0
 10 30  1  0  0  0  0
 10 31  1  0  0  0  0
 15 32  1  0  0  0  0
 15 33  1  0  0  0  0
 16 34  1  0  0  0  0
 16 35  1  0  0  0  0
 16 36  1  0  0  0  0
 18 37  1  0  0  0  0
 18 38  1  0  0  0  0
 19 39  1  0  0  0  0
 19 40  1  0  0  0  0
 19 41  1  0  0  0  0
M  END
