 xtb: 6.7.1 (edcfbbe)
          04092507313D

 38 37  0     0  0            999 V2000
    3.8356   -1.0657    1.8443 C   0  0  0  0  0  0  0  0  0  0  0  0
    2.8000   -1.9625    1.1855 C   0  0  0  0  0  0  0  0  0  0  0  0
    2.4363   -1.4591   -0.1138 O   0  0  0  0  0  0  0  0  0  0  0  0
    1.5112   -0.5392   -0.1945 C   0  0  0  0  0  0  0  0  0  0  0  0
    0.9386   -0.0324    0.7576 O   0  0  0  0  0  0  0  0  0  0  0  0
    1.2438   -0.1082   -1.6187 C   0  0  0  0  0  0  0  0  0  0  0  0
    0.2038    1.0018   -1.6222 C   0  0  0  0  0  0  0  0  0  0  0  0
    0.2225    1.5412   -2.5733 H   0  0  0  0  0  0  0  0  0  0  0  0
    0.4456    2.0039   -0.4997 C   0  0  0  0  0  0  0  0  0  0  0  0
   -0.4314    2.4823    0.1832 O   0  0  0  0  0  0  0  0  0  0  0  0
    1.7135    2.3538   -0.4422 O   0  0  0  0  0  0  0  0  0  0  0  0
    2.0907    3.2984    0.5801 C   0  0  0  0  0  0  0  0  0  0  0  0
    3.5654    3.6057    0.4148 C   0  0  0  0  0  0  0  0  0  0  0  0
   -1.5216    0.4187   -1.5328 S   0  0  0  0  0  0  0  0  0  0  0  0
   -1.7051   -0.9455    0.0856 P   0  0  0  0  0  0  0  0  0  0  0  0
   -0.6658   -2.6067    0.0486 S   0  0  0  0  0  0  0  0  0  0  0  0
   -1.6980   -0.2304    1.4919 O   0  0  0  0  0  0  0  0  0  0  0  0
   -2.5675    0.8651    1.8395 C   0  0  0  0  0  0  0  0  0  0  0  0
   -3.2751   -1.2316   -0.0715 O   0  0  0  0  0  0  0  0  0  0  0  0
   -3.7895   -2.0106   -1.1568 C   0  0  0  0  0  0  0  0  0  0  0  0
    4.1387   -1.5042    2.7892 H   0  0  0  0  0  0  0  0  0  0  0  0
    4.7038   -0.9637    1.1993 H   0  0  0  0  0  0  0  0  0  0  0  0
    3.4112   -0.0818    2.0329 H   0  0  0  0  0  0  0  0  0  0  0  0
    1.8940   -2.0360    1.7948 H   0  0  0  0  0  0  0  0  0  0  0  0
    3.1958   -2.9580    0.9859 H   0  0  0  0  0  0  0  0  0  0  0  0
    0.9126   -0.9708   -2.1997 H   0  0  0  0  0  0  0  0  0  0  0  0
    2.1822    0.2513   -2.0441 H   0  0  0  0  0  0  0  0  0  0  0  0
    1.4700    4.1926    0.4671 H   0  0  0  0  0  0  0  0  0  0  0  0
    1.8696    2.8464    1.5527 H   0  0  0  0  0  0  0  0  0  0  0  0
    3.8671    4.3208    1.1726 H   0  0  0  0  0  0  0  0  0  0  0  0
    4.1519    2.6984    0.5258 H   0  0  0  0  0  0  0  0  0  0  0  0
    3.7495    4.0256   -0.5694 H   0  0  0  0  0  0  0  0  0  0  0  0
   -2.5297    0.9182    2.9244 H   0  0  0  0  0  0  0  0  0  0  0  0
   -3.5801    0.6664    1.4947 H   0  0  0  0  0  0  0  0  0  0  0  0
   -2.1812    1.7835    1.3978 H   0  0  0  0  0  0  0  0  0  0  0  0
   -3.1745   -2.9002   -1.3015 H   0  0  0  0  0  0  0  0  0  0  0  0
   -3.8023   -1.4126   -2.0670 H   0  0  0  0  0  0  0  0  0  0  0  0
   -4.7984   -2.2900   -0.8638 H   0  0  0  0  0  0  0  0  0  0  0  0
  1  2  1  0  0  0  0
  2  3  1  0  0  0  0
  3  4  4  0  0  0  0
  4  5  2  0  0  0  0
  4  6  1  0  0  0  0
  6  7  1  0  0  0  0
  7  8  1  0  0  0  0
  7  9  1  0  0  0  0
  9 10  2  0  0  0  0
  9 11  1  0  0  0  0
 11 12  1  0  0  0  0
 12 13  1  0  0  0  0
  7 14  1  0  0  0  0
 14 15  1  0  0  0  0
 15 16  2  0  0  0  0
 15 17  2  0  0  0  0
 17 18  1  0  0  0  0
 15 19  1  0  0  0  0
 19 20  1  0  0  0  0
  1 21  1  0  0  0  0
  1 22  1  0  0  0  0
  1 23  1  0  0  0  0
  2 24  1  0  0  0  0
  2 25  1  0  0  0  0
  6 26  1  0  0  0  0
  6 27  1  0  0  0  0
 12 28  1  0  0  0  0
 12 29  1  0  0  0  0
 13 30  1  0  0  0  0
 13 31  1  0  0  0  0
 13 32  1  0  0  0  0
 18 33  1  0  0  0  0
 18 34  1  0  0  0  0
 18 35  1  0  0  0  0
 20 36  1  0  0  0  0
 20 37  1  0  0  0  0
 20 38  1  0  0  0  0
M  END
