 xtb: 6.7.1 (edcfbbe)
          04092505213D

 41 40  0     0  0            999 V2000
    1.3182   -1.7623    2.3346 C   0  0  0  0  0  0  0  0  0  0  0  0
    2.8097   -1.6551    2.0941 C   0  0  0  0  0  0  0  0  0  0  0  0
    3.1630   -0.4469    1.3966 O   0  0  0  0  0  0  0  0  0  0  0  0
    2.7869   -0.1897   -0.1295 P   0  0  0  0  0  0  0  0  0  0  0  0
    2.9371   -1.7352   -1.3160 S   0  0  0  0  0  0  0  0  0  0  0  0
    3.7977    0.9576   -0.5093 O   0  0  0  0  0  0  0  0  0  0  0  0
    3.9261    2.1709    0.2761 C   0  0  0  0  0  0  0  0  0  0  0  0
    4.6424    3.1973   -0.5758 C   0  0  0  0  0  0  0  0  0  0  0  0
    0.8875    0.8137   -0.0950 S   0  0  0  0  0  0  0  0  0  0  0  0
   -0.0265   -0.2313   -1.2559 C   0  0  0  0  0  0  0  0  0  0  0  0
   -1.2537   -1.2753   -0.4417 S   0  0  0  0  0  0  0  0  0  0  0  0
   -2.7266    0.2553   -0.2231 P   0  0  0  0  0  0  0  0  0  0  0  0
   -2.9123    1.4694   -1.7467 S   0  0  0  0  0  0  0  0  0  0  0  0
   -2.3495    1.0863    1.0584 O   0  0  0  0  0  0  0  0  0  0  0  0
   -2.1412    0.4921    2.3663 C   0  0  0  0  0  0  0  0  0  0  0  0
   -1.1770    1.3776    3.1282 C   0  0  0  0  0  0  0  0  0  0  0  0
   -4.0027   -0.5467    0.2800 O   0  0  0  0  0  0  0  0  0  0  0  0
   -4.5458   -1.7283   -0.3389 C   0  0  0  0  0  0  0  0  0  0  0  0
   -4.8352   -1.5375   -1.8129 C   0  0  0  0  0  0  0  0  0  0  0  0
    0.9500   -0.8619    2.8193 H   0  0  0  0  0  0  0  0  0  0  0  0
    0.7954   -1.9020    1.3888 H   0  0  0  0  0  0  0  0  0  0  0  0
    1.1191   -2.6198    2.9693 H   0  0  0  0  0  0  0  0  0  0  0  0
    3.1698   -2.5086    1.5115 H   0  0  0  0  0  0  0  0  0  0  0  0
    3.3643   -1.5840    3.0309 H   0  0  0  0  0  0  0  0  0  0  0  0
    2.9245    2.5106    0.5564 H   0  0  0  0  0  0  0  0  0  0  0  0
    4.4914    1.9271    1.1774 H   0  0  0  0  0  0  0  0  0  0  0  0
    5.6130    2.8157   -0.8793 H   0  0  0  0  0  0  0  0  0  0  0  0
    4.0602    3.4178   -1.4663 H   0  0  0  0  0  0  0  0  0  0  0  0
    4.7763    4.1075   -0.0003 H   0  0  0  0  0  0  0  0  0  0  0  0
    0.6758   -0.8943   -1.7662 H   0  0  0  0  0  0  0  0  0  0  0  0
   -0.5440    0.4240   -1.9586 H   0  0  0  0  0  0  0  0  0  0  0  0
   -3.1136    0.4359    2.8586 H   0  0  0  0  0  0  0  0  0  0  0  0
   -1.7427   -0.5185    2.2346 H   0  0  0  0  0  0  0  0  0  0  0  0
   -1.5894    2.3776    3.2254 H   0  0  0  0  0  0  0  0  0  0  0  0
   -1.0108    0.9589    4.1157 H   0  0  0  0  0  0  0  0  0  0  0  0
   -0.2324    1.4463    2.5940 H   0  0  0  0  0  0  0  0  0  0  0  0
   -3.8380   -2.5478   -0.1866 H   0  0  0  0  0  0  0  0  0  0  0  0
   -5.4602   -1.9158    0.2266 H   0  0  0  0  0  0  0  0  0  0  0  0
   -5.3176   -2.4270   -2.2048 H   0  0  0  0  0  0  0  0  0  0  0  0
   -5.4844   -0.6783   -1.9646 H   0  0  0  0  0  0  0  0  0  0  0  0
   -3.9085   -1.3669   -2.3597 H   0  0  0  0  0  0  0  0  0  0  0  0
  1  2  1  0  0  0  0
  2  3  1  0  0  0  0
  3  4  2  0  0  0  0
  4  5  2  0  0  0  0
  4  6  2  0  0  0  0
  6  7  1  0  0  0  0
  7  8  1  0  0  0  0
  4  9  1  0  0  0  0
  9 10  1  0  0  0  0
 10 11  1  0  0  0  0
 11 12  1  0  0  0  0
 12 13  2  0  0  0  0
 12 14  2  0  0  0  0
 14 15  1  0  0  0  0
 15 16  1  0  0  0  0
 12 17  2  0  0  0  0
 17 18  1  0  0  0  0
 18 19  1  0  0  0  0
  1 20  1  0  0  0  0
  1 21  1  0  0  0  0
  1 22  1  0  0  0  0
  2 23  1  0  0  0  0
  2 24  1  0  0  0  0
  7 25  1  0  0  0  0
  7 26  1  0  0  0  0
  8 27  1  0  0  0  0
  8 28  1  0  0  0  0
  8 29  1  0  0  0  0
 10 30  1  0  0  0  0
 10 31  1  0  0  0  0
 15 32  1  0  0  0  0
 15 33  1  0  0  0  0
 16 34  1  0  0  0  0
 16 35  1  0  0  0  0
 16 36  1  0  0  0  0
 18 37  1  0  0  0  0
 18 38  1  0  0  0  0
 19 39  1  0  0  0  0
 19 40  1  0  0  0  0
 19 41  1  0  0  0  0
M  END
