 xtb: 6.7.1 (edcfbbe)
          04092505213D

 41 40  0     0  0            999 V2000
    2.3489    0.2437   -2.9050 C   0  0  0  0  0  0  0  0  0  0  0  0
    1.9119   -0.9450   -2.0735 C   0  0  0  0  0  0  0  0  0  0  0  0
    2.6402   -1.0236   -0.8358 O   0  0  0  0  0  0  0  0  0  0  0  0
    2.2847   -0.2127    0.4835 P   0  0  0  0  0  0  0  0  0  0  0  0
    2.3995    1.7388    0.4788 S   0  0  0  0  0  0  0  0  0  0  0  0
    3.3266   -0.7924    1.5120 O   0  0  0  0  0  0  0  0  0  0  0  0
    3.5139   -2.2077    1.7599 C   0  0  0  0  0  0  0  0  0  0  0  0
    4.6852   -2.7425    0.9616 C   0  0  0  0  0  0  0  0  0  0  0  0
    0.4018   -1.0609    1.0542 S   0  0  0  0  0  0  0  0  0  0  0  0
   -0.2803    0.3802    1.9274 C   0  0  0  0  0  0  0  0  0  0  0  0
   -2.0835    0.4698    1.8035 S   0  0  0  0  0  0  0  0  0  0  0  0
   -2.2528    0.5028   -0.2952 P   0  0  0  0  0  0  0  0  0  0  0  0
   -0.8596    1.3881   -1.3646 S   0  0  0  0  0  0  0  0  0  0  0  0
   -3.7199    1.0567   -0.5690 O   0  0  0  0  0  0  0  0  0  0  0  0
   -4.0022    2.4540   -0.7535 C   0  0  0  0  0  0  0  0  0  0  0  0
   -3.7725    3.2538    0.5127 C   0  0  0  0  0  0  0  0  0  0  0  0
   -2.4541   -1.0427   -0.5553 O   0  0  0  0  0  0  0  0  0  0  0  0
   -2.3260   -1.6554   -1.8588 C   0  0  0  0  0  0  0  0  0  0  0  0
   -1.7068   -3.0268   -1.6778 C   0  0  0  0  0  0  0  0  0  0  0  0
    2.0630    1.1720   -2.4136 H   0  0  0  0  0  0  0  0  0  0  0  0
    3.4271    0.2341   -3.0388 H   0  0  0  0  0  0  0  0  0  0  0  0
    1.8620    0.2013   -3.8739 H   0  0  0  0  0  0  0  0  0  0  0  0
    2.1382   -1.8874   -2.5758 H   0  0  0  0  0  0  0  0  0  0  0  0
    0.8415   -0.8889   -1.8589 H   0  0  0  0  0  0  0  0  0  0  0  0
    3.7024   -2.2728    2.8330 H   0  0  0  0  0  0  0  0  0  0  0  0
    2.5881   -2.7359    1.5141 H   0  0  0  0  0  0  0  0  0  0  0  0
    4.4874   -2.6570   -0.1032 H   0  0  0  0  0  0  0  0  0  0  0  0
    5.5826   -2.1768    1.1963 H   0  0  0  0  0  0  0  0  0  0  0  0
    4.8416   -3.7861    1.2163 H   0  0  0  0  0  0  0  0  0  0  0  0
    0.1724    1.2790    1.4968 H   0  0  0  0  0  0  0  0  0  0  0  0
   -0.0583    0.3008    2.9890 H   0  0  0  0  0  0  0  0  0  0  0  0
   -3.3712    2.8294   -1.5658 H   0  0  0  0  0  0  0  0  0  0  0  0
   -5.0494    2.4715   -1.0579 H   0  0  0  0  0  0  0  0  0  0  0  0
   -4.1113    4.2737    0.3613 H   0  0  0  0  0  0  0  0  0  0  0  0
   -4.3155    2.8104    1.3436 H   0  0  0  0  0  0  0  0  0  0  0  0
   -2.7104    3.2692    0.7565 H   0  0  0  0  0  0  0  0  0  0  0  0
   -3.3279   -1.7205   -2.2885 H   0  0  0  0  0  0  0  0  0  0  0  0
   -1.7049   -1.0111   -2.4916 H   0  0  0  0  0  0  0  0  0  0  0  0
   -0.7276   -2.9382   -1.2139 H   0  0  0  0  0  0  0  0  0  0  0  0
   -2.3383   -3.6344   -1.0366 H   0  0  0  0  0  0  0  0  0  0  0  0
   -1.6072   -3.5043   -2.6469 H   0  0  0  0  0  0  0  0  0  0  0  0
  1  2  1  0  0  0  0
  2  3  1  0  0  0  0
  3  4  2  0  0  0  0
  4  5  2  0  0  0  0
  4  6  2  0  0  0  0
  6  7  1  0  0  0  0
  7  8  1  0  0  0  0
  4  9  1  0  0  0  0
  9 10  1  0  0  0  0
 10 11  1  0  0  0  0
 11 12  1  0  0  0  0
 12 13  2  0  0  0  0
 12 14  2  0  0  0  0
 14 15  1  0  0  0  0
 15 16  1  0  0  0  0
 12 17  2  0  0  0  0
 17 18  1  0  0  0  0
 18 19  1  0  0  0  0
  1 20  1  0  0  0  0
  1 21  1  0  0  0  0
  1 22  1  0  0  0  0
  2 23  1  0  0  0  0
  2 24  1  0  0  0  0
  7 25  1  0  0  0  0
  7 26  1  0  0  0  0
  8 27  1  0  0  0  0
  8 28  1  0  0  0  0
  8 29  1  0  0  0  0
 10 30  1  0  0  0  0
 10 31  1  0  0  0  0
 15 32  1  0  0  0  0
 15 33  1  0  0  0  0
 16 34  1  0  0  0  0
 16 35  1  0  0  0  0
 16 36  1  0  0  0  0
 18 37  1  0  0  0  0
 18 38  1  0  0  0  0
 19 39  1  0  0  0  0
 19 40  1  0  0  0  0
 19 41  1  0  0  0  0
M  END
