 xtb: 6.7.1 (edcfbbe)
          04092505213D

 41 40  0     0  0            999 V2000
    2.3349   -0.7009   -2.9703 C   0  0  0  0  0  0  0  0  0  0  0  0
    3.4564   -0.3406   -2.0173 C   0  0  0  0  0  0  0  0  0  0  0  0
    3.2550   -0.9190   -0.7188 O   0  0  0  0  0  0  0  0  0  0  0  0
    2.1730   -0.3790    0.3124 P   0  0  0  0  0  0  0  0  0  0  0  0
    2.0599    1.5839    0.3924 S   0  0  0  0  0  0  0  0  0  0  0  0
    2.5988   -1.0766    1.6694 O   0  0  0  0  0  0  0  0  0  0  0  0
    3.4977   -0.4478    2.6057 C   0  0  0  0  0  0  0  0  0  0  0  0
    4.9128   -0.3920    2.0706 C   0  0  0  0  0  0  0  0  0  0  0  0
    0.5032   -1.6029   -0.1059 S   0  0  0  0  0  0  0  0  0  0  0  0
   -0.4757   -1.3222    1.3962 C   0  0  0  0  0  0  0  0  0  0  0  0
   -1.0716    0.3863    1.6022 S   0  0  0  0  0  0  0  0  0  0  0  0
   -1.9941    0.6599   -0.2933 P   0  0  0  0  0  0  0  0  0  0  0  0
   -0.8822    1.1822   -1.8162 S   0  0  0  0  0  0  0  0  0  0  0  0
   -3.0630    1.7925   -0.0099 O   0  0  0  0  0  0  0  0  0  0  0  0
   -4.3765    1.6061    0.5740 C   0  0  0  0  0  0  0  0  0  0  0  0
   -4.3392    1.0089    1.9642 C   0  0  0  0  0  0  0  0  0  0  0  0
   -2.7923   -0.7114   -0.4496 O   0  0  0  0  0  0  0  0  0  0  0  0
   -2.8157   -1.4701   -1.6747 C   0  0  0  0  0  0  0  0  0  0  0  0
   -3.8808   -0.9389   -2.6123 C   0  0  0  0  0  0  0  0  0  0  0  0
    2.1831   -1.7772   -2.9833 H   0  0  0  0  0  0  0  0  0  0  0  0
    1.4082   -0.2170   -2.6602 H   0  0  0  0  0  0  0  0  0  0  0  0
    2.5841   -0.3573   -3.9690 H   0  0  0  0  0  0  0  0  0  0  0  0
    3.5355    0.7465   -1.9086 H   0  0  0  0  0  0  0  0  0  0  0  0
    4.4118   -0.7534   -2.3445 H   0  0  0  0  0  0  0  0  0  0  0  0
    3.1255    0.5594    2.8202 H   0  0  0  0  0  0  0  0  0  0  0  0
    3.4258   -1.0719    3.4974 H   0  0  0  0  0  0  0  0  0  0  0  0
    5.2384   -1.3832    1.7664 H   0  0  0  0  0  0  0  0  0  0  0  0
    4.9544    0.2724    1.2085 H   0  0  0  0  0  0  0  0  0  0  0  0
    5.5753   -0.0118    2.8418 H   0  0  0  0  0  0  0  0  0  0  0  0
    0.1267   -1.5400    2.2748 H   0  0  0  0  0  0  0  0  0  0  0  0
   -1.3263   -1.9957    1.3262 H   0  0  0  0  0  0  0  0  0  0  0  0
   -4.7848    2.6180    0.5824 H   0  0  0  0  0  0  0  0  0  0  0  0
   -4.9594    0.9779   -0.1029 H   0  0  0  0  0  0  0  0  0  0  0  0
   -3.6769    1.5835    2.6073 H   0  0  0  0  0  0  0  0  0  0  0  0
   -5.3426    1.0253    2.3788 H   0  0  0  0  0  0  0  0  0  0  0  0
   -3.9869   -0.0192    1.9263 H   0  0  0  0  0  0  0  0  0  0  0  0
   -1.8282   -1.4196   -2.1426 H   0  0  0  0  0  0  0  0  0  0  0  0
   -3.0241   -2.4927   -1.3583 H   0  0  0  0  0  0  0  0  0  0  0  0
   -3.6535    0.0936   -2.8760 H   0  0  0  0  0  0  0  0  0  0  0  0
   -3.8935   -1.5377   -3.5172 H   0  0  0  0  0  0  0  0  0  0  0  0
   -4.8593   -0.9799   -2.1411 H   0  0  0  0  0  0  0  0  0  0  0  0
  1  2  1  0  0  0  0
  2  3  1  0  0  0  0
  3  4  2  0  0  0  0
  4  5  2  0  0  0  0
  4  6  2  0  0  0  0
  6  7  1  0  0  0  0
  7  8  1  0  0  0  0
  4  9  1  0  0  0  0
  9 10  1  0  0  0  0
 10 11  1  0  0  0  0
 11 12  1  0  0  0  0
 12 13  2  0  0  0  0
 12 14  2  0  0  0  0
 14 15  1  0  0  0  0
 15 16  1  0  0  0  0
 12 17  2  0  0  0  0
 17 18  1  0  0  0  0
 18 19  1  0  0  0  0
  1 20  1  0  0  0  0
  1 21  1  0  0  0  0
  1 22  1  0  0  0  0
  2 23  1  0  0  0  0
  2 24  1  0  0  0  0
  7 25  1  0  0  0  0
  7 26  1  0  0  0  0
  8 27  1  0  0  0  0
  8 28  1  0  0  0  0
  8 29  1  0  0  0  0
 10 30  1  0  0  0  0
 10 31  1  0  0  0  0
 15 32  1  0  0  0  0
 15 33  1  0  0  0  0
 16 34  1  0  0  0  0
 16 35  1  0  0  0  0
 16 36  1  0  0  0  0
 18 37  1  0  0  0  0
 18 38  1  0  0  0  0
 19 39  1  0  0  0  0
 19 40  1  0  0  0  0
 19 41  1  0  0  0  0
M  END
