 xtb: 6.7.1 (edcfbbe)
          04092505213D

 41 40  0     0  0            999 V2000
    0.2769   -1.3879    3.0169 C   0  0  0  0  0  0  0  0  0  0  0  0
    1.4258   -0.5504    2.4952 C   0  0  0  0  0  0  0  0  0  0  0  0
    1.9194   -1.1698    1.2800 O   0  0  0  0  0  0  0  0  0  0  0  0
    2.6055   -0.3479    0.1236 P   0  0  0  0  0  0  0  0  0  0  0  0
    3.3358   -1.5035   -1.2723 S   0  0  0  0  0  0  0  0  0  0  0  0
    3.6534    0.5332    0.9316 O   0  0  0  0  0  0  0  0  0  0  0  0
    4.7817    1.1749    0.3071 C   0  0  0  0  0  0  0  0  0  0  0  0
    4.3651    2.2367   -0.6894 C   0  0  0  0  0  0  0  0  0  0  0  0
    1.1378    1.0712   -0.5134 S   0  0  0  0  0  0  0  0  0  0  0  0
    0.3684   -0.0007   -1.7477 C   0  0  0  0  0  0  0  0  0  0  0  0
   -0.5923   -1.3453   -0.9992 S   0  0  0  0  0  0  0  0  0  0  0  0
   -2.2282   -0.1391   -0.4151 P   0  0  0  0  0  0  0  0  0  0  0  0
   -2.7690    1.2359   -1.7089 S   0  0  0  0  0  0  0  0  0  0  0  0
   -1.8887    0.4306    1.0343 O   0  0  0  0  0  0  0  0  0  0  0  0
   -1.7838    1.8314    1.3515 C   0  0  0  0  0  0  0  0  0  0  0  0
   -3.1002    2.3456    1.8991 C   0  0  0  0  0  0  0  0  0  0  0  0
   -3.1952   -1.3543   -0.1068 O   0  0  0  0  0  0  0  0  0  0  0  0
   -4.4265   -1.2159    0.6365 C   0  0  0  0  0  0  0  0  0  0  0  0
   -5.5470   -0.6701   -0.2264 C   0  0  0  0  0  0  0  0  0  0  0  0
   -0.5413   -1.3955    2.3004 H   0  0  0  0  0  0  0  0  0  0  0  0
    0.6070   -2.4105    3.1753 H   0  0  0  0  0  0  0  0  0  0  0  0
   -0.0721   -0.9707    3.9560 H   0  0  0  0  0  0  0  0  0  0  0  0
    2.2557   -0.5180    3.2035 H   0  0  0  0  0  0  0  0  0  0  0  0
    1.1104    0.4713    2.2629 H   0  0  0  0  0  0  0  0  0  0  0  0
    5.3308    1.6027    1.1471 H   0  0  0  0  0  0  0  0  0  0  0  0
    5.3863    0.4053   -0.1817 H   0  0  0  0  0  0  0  0  0  0  0  0
    3.8820    1.7727   -1.5480 H   0  0  0  0  0  0  0  0  0  0  0  0
    3.6710    2.9371   -0.2316 H   0  0  0  0  0  0  0  0  0  0  0  0
    5.2458    2.7714   -1.0305 H   0  0  0  0  0  0  0  0  0  0  0  0
    1.1466   -0.4659   -2.3532 H   0  0  0  0  0  0  0  0  0  0  0  0
   -0.2884    0.6253   -2.3535 H   0  0  0  0  0  0  0  0  0  0  0  0
   -0.9873    1.8953    2.0937 H   0  0  0  0  0  0  0  0  0  0  0  0
   -1.4945    2.3851    0.4537 H   0  0  0  0  0  0  0  0  0  0  0  0
   -2.9831    3.3847    2.1890 H   0  0  0  0  0  0  0  0  0  0  0  0
   -3.8710    2.2794    1.1335 H   0  0  0  0  0  0  0  0  0  0  0  0
   -3.4042    1.7641    2.7652 H   0  0  0  0  0  0  0  0  0  0  0  0
   -4.6426   -2.2323    0.9705 H   0  0  0  0  0  0  0  0  0  0  0  0
   -4.2459   -0.5739    1.5024 H   0  0  0  0  0  0  0  0  0  0  0  0
   -5.6887   -1.3014   -1.0997 H   0  0  0  0  0  0  0  0  0  0  0  0
   -6.4656   -0.6455    0.3514 H   0  0  0  0  0  0  0  0  0  0  0  0
   -5.3124    0.3370   -0.5657 H   0  0  0  0  0  0  0  0  0  0  0  0
  1  2  1  0  0  0  0
  2  3  1  0  0  0  0
  3  4  2  0  0  0  0
  4  5  2  0  0  0  0
  4  6  2  0  0  0  0
  6  7  1  0  0  0  0
  7  8  1  0  0  0  0
  4  9  1  0  0  0  0
  9 10  1  0  0  0  0
 10 11  1  0  0  0  0
 11 12  1  0  0  0  0
 12 13  2  0  0  0  0
 12 14  2  0  0  0  0
 14 15  1  0  0  0  0
 15 16  1  0  0  0  0
 12 17  2  0  0  0  0
 17 18  1  0  0  0  0
 18 19  1  0  0  0  0
  1 20  1  0  0  0  0
  1 21  1  0  0  0  0
  1 22  1  0  0  0  0
  2 23  1  0  0  0  0
  2 24  1  0  0  0  0
  7 25  1  0  0  0  0
  7 26  1  0  0  0  0
  8 27  1  0  0  0  0
  8 28  1  0  0  0  0
  8 29  1  0  0  0  0
 10 30  1  0  0  0  0
 10 31  1  0  0  0  0
 15 32  1  0  0  0  0
 15 33  1  0  0  0  0
 16 34  1  0  0  0  0
 16 35  1  0  0  0  0
 16 36  1  0  0  0  0
 18 37  1  0  0  0  0
 18 38  1  0  0  0  0
 19 39  1  0  0  0  0
 19 40  1  0  0  0  0
 19 41  1  0  0  0  0
M  END
