 xtb: 6.7.1 (edcfbbe)
          04092505203D

 41 40  0     0  0            999 V2000
    2.5982   -2.9545   -1.4361 C   0  0  0  0  0  0  0  0  0  0  0  0
    3.4342   -1.7658   -1.8620 C   0  0  0  0  0  0  0  0  0  0  0  0
    3.5900   -0.7877   -0.8085 O   0  0  0  0  0  0  0  0  0  0  0  0
    2.4258    0.0138   -0.0852 P   0  0  0  0  0  0  0  0  0  0  0  0
    3.1698    1.5908    0.7943 S   0  0  0  0  0  0  0  0  0  0  0  0
    1.6822   -1.0221    0.8795 O   0  0  0  0  0  0  0  0  0  0  0  0
    1.9594   -1.1335    2.2898 C   0  0  0  0  0  0  0  0  0  0  0  0
    0.9357   -0.3731    3.1091 C   0  0  0  0  0  0  0  0  0  0  0  0
    0.9768    0.2859   -1.5988 S   0  0  0  0  0  0  0  0  0  0  0  0
    0.2549    1.8181   -0.9589 C   0  0  0  0  0  0  0  0  0  0  0  0
   -0.5934    1.6126    0.6285 S   0  0  0  0  0  0  0  0  0  0  0  0
   -2.0307    0.2125   -0.0336 P   0  0  0  0  0  0  0  0  0  0  0  0
   -2.7376    0.4408   -1.8519 S   0  0  0  0  0  0  0  0  0  0  0  0
   -3.1217    0.2028    1.1221 O   0  0  0  0  0  0  0  0  0  0  0  0
   -4.2708    1.0665    1.1091 C   0  0  0  0  0  0  0  0  0  0  0  0
   -3.8960    2.5202    1.3144 C   0  0  0  0  0  0  0  0  0  0  0  0
   -1.2558   -1.1361    0.2646 O   0  0  0  0  0  0  0  0  0  0  0  0
   -1.5569   -2.3658   -0.4230 C   0  0  0  0  0  0  0  0  0  0  0  0
   -2.9265   -2.8961   -0.0547 C   0  0  0  0  0  0  0  0  0  0  0  0
    3.0280   -3.4223   -0.5540 H   0  0  0  0  0  0  0  0  0  0  0  0
    1.5832   -2.6335   -1.2097 H   0  0  0  0  0  0  0  0  0  0  0  0
    2.5686   -3.6755   -2.2470 H   0  0  0  0  0  0  0  0  0  0  0  0
    2.9888   -1.2679   -2.7273 H   0  0  0  0  0  0  0  0  0  0  0  0
    4.4618   -2.0541   -2.0896 H   0  0  0  0  0  0  0  0  0  0  0  0
    1.9138   -2.2048    2.4942 H   0  0  0  0  0  0  0  0  0  0  0  0
    2.9689   -0.7619    2.4895 H   0  0  0  0  0  0  0  0  0  0  0  0
   -0.0695   -0.6688    2.8180 H   0  0  0  0  0  0  0  0  0  0  0  0
    1.0868   -0.5916    4.1613 H   0  0  0  0  0  0  0  0  0  0  0  0
    1.0447    0.6974    2.9485 H   0  0  0  0  0  0  0  0  0  0  0  0
   -0.4533    2.1542   -1.7156 H   0  0  0  0  0  0  0  0  0  0  0  0
    1.0428    2.5521   -0.7927 H   0  0  0  0  0  0  0  0  0  0  0  0
   -4.7907    0.9356    0.1545 H   0  0  0  0  0  0  0  0  0  0  0  0
   -4.8902    0.6913    1.9248 H   0  0  0  0  0  0  0  0  0  0  0  0
   -3.3331    2.8855    0.4565 H   0  0  0  0  0  0  0  0  0  0  0  0
   -4.7989    3.1130    1.4206 H   0  0  0  0  0  0  0  0  0  0  0  0
   -3.2835    2.6306    2.2058 H   0  0  0  0  0  0  0  0  0  0  0  0
   -1.4867   -2.1861   -1.5010 H   0  0  0  0  0  0  0  0  0  0  0  0
   -0.7622   -3.0433   -0.1066 H   0  0  0  0  0  0  0  0  0  0  0  0
   -3.0758   -3.8645   -0.5218 H   0  0  0  0  0  0  0  0  0  0  0  0
   -3.0150   -2.9949    1.0240 H   0  0  0  0  0  0  0  0  0  0  0  0
   -3.6948   -2.2100   -0.4096 H   0  0  0  0  0  0  0  0  0  0  0  0
  1  2  1  0  0  0  0
  2  3  1  0  0  0  0
  3  4  2  0  0  0  0
  4  5  2  0  0  0  0
  4  6  1  0  0  0  0
  6  7  1  0  0  0  0
  7  8  1  0  0  0  0
  4  9  1  0  0  0  0
  9 10  1  0  0  0  0
 10 11  1  0  0  0  0
 11 12  1  0  0  0  0
 12 13  2  0  0  0  0
 12 14  2  0  0  0  0
 14 15  1  0  0  0  0
 15 16  1  0  0  0  0
 12 17  2  0  0  0  0
 17 18  1  0  0  0  0
 18 19  1  0  0  0  0
  1 20  1  0  0  0  0
  1 21  1  0  0  0  0
  1 22  1  0  0  0  0
  2 23  1  0  0  0  0
  2 24  1  0  0  0  0
  7 25  1  0  0  0  0
  7 26  1  0  0  0  0
  8 27  1  0  0  0  0
  8 28  1  0  0  0  0
  8 29  1  0  0  0  0
 10 30  1  0  0  0  0
 10 31  1  0  0  0  0
 15 32  1  0  0  0  0
 15 33  1  0  0  0  0
 16 34  1  0  0  0  0
 16 35  1  0  0  0  0
 16 36  1  0  0  0  0
 18 37  1  0  0  0  0
 18 38  1  0  0  0  0
 19 39  1  0  0  0  0
 19 40  1  0  0  0  0
 19 41  1  0  0  0  0
M  END
