 xtb: 6.7.1 (edcfbbe)
          04092505213D

 41 40  0     0  0            999 V2000
    2.6135    2.4547   -1.6569 C   0  0  0  0  0  0  0  0  0  0  0  0
    3.1704    1.3529   -0.7798 C   0  0  0  0  0  0  0  0  0  0  0  0
    2.1570    1.0017    0.1997 O   0  0  0  0  0  0  0  0  0  0  0  0
    2.0427   -0.4345    0.8394 P   0  0  0  0  0  0  0  0  0  0  0  0
    0.5831   -0.4459    2.1427 S   0  0  0  0  0  0  0  0  0  0  0  0
    3.5257   -0.6605    1.3617 O   0  0  0  0  0  0  0  0  0  0  0  0
    4.1113   -1.9346    1.6902 C   0  0  0  0  0  0  0  0  0  0  0  0
    3.2827   -2.7212    2.6838 C   0  0  0  0  0  0  0  0  0  0  0  0
    1.8965   -1.8392   -0.7624 S   0  0  0  0  0  0  0  0  0  0  0  0
    0.1327   -1.6701   -1.0684 C   0  0  0  0  0  0  0  0  0  0  0  0
   -0.2747   -0.0289   -1.7610 S   0  0  0  0  0  0  0  0  0  0  0  0
   -2.1081    0.3714   -0.7972 P   0  0  0  0  0  0  0  0  0  0  0  0
   -2.6906   -0.9780    0.5099 S   0  0  0  0  0  0  0  0  0  0  0  0
   -3.0141    0.5142   -2.0877 O   0  0  0  0  0  0  0  0  0  0  0  0
   -4.2154    1.3124   -2.1618 C   0  0  0  0  0  0  0  0  0  0  0  0
   -5.2416    0.9109   -1.1235 C   0  0  0  0  0  0  0  0  0  0  0  0
   -2.0232    1.8940   -0.3390 O   0  0  0  0  0  0  0  0  0  0  0  0
   -1.2591    2.4080    0.7643 C   0  0  0  0  0  0  0  0  0  0  0  0
   -1.9913    2.2451    2.0810 C   0  0  0  0  0  0  0  0  0  0  0  0
    2.3420    3.3136   -1.0498 H   0  0  0  0  0  0  0  0  0  0  0  0
    3.3685    2.7485   -2.3787 H   0  0  0  0  0  0  0  0  0  0  0  0
    1.7306    2.1020   -2.1845 H   0  0  0  0  0  0  0  0  0  0  0  0
    4.0532    1.6805   -0.2284 H   0  0  0  0  0  0  0  0  0  0  0  0
    3.4156    0.4631   -1.3666 H   0  0  0  0  0  0  0  0  0  0  0  0
    4.2405   -2.4981    0.7623 H   0  0  0  0  0  0  0  0  0  0  0  0
    5.0854   -1.6688    2.1045 H   0  0  0  0  0  0  0  0  0  0  0  0
    3.8074   -3.6324    2.9518 H   0  0  0  0  0  0  0  0  0  0  0  0
    3.1023   -2.1317    3.5798 H   0  0  0  0  0  0  0  0  0  0  0  0
    2.3197   -2.9826    2.2465 H   0  0  0  0  0  0  0  0  0  0  0  0
   -0.4267   -1.8000   -0.1360 H   0  0  0  0  0  0  0  0  0  0  0  0
   -0.1279   -2.4368   -1.7937 H   0  0  0  0  0  0  0  0  0  0  0  0
   -3.9354    2.3619   -2.0489 H   0  0  0  0  0  0  0  0  0  0  0  0
   -4.5768    1.1294   -3.1751 H   0  0  0  0  0  0  0  0  0  0  0  0
   -4.8507    1.0921   -0.1228 H   0  0  0  0  0  0  0  0  0  0  0  0
   -6.1464    1.4939   -1.2635 H   0  0  0  0  0  0  0  0  0  0  0  0
   -5.4761   -0.1475   -1.2116 H   0  0  0  0  0  0  0  0  0  0  0  0
   -0.2852    1.9114    0.7993 H   0  0  0  0  0  0  0  0  0  0  0  0
   -1.1202    3.4622    0.5157 H   0  0  0  0  0  0  0  0  0  0  0  0
   -1.4207    2.7307    2.8662 H   0  0  0  0  0  0  0  0  0  0  0  0
   -2.9802    2.6917    2.0221 H   0  0  0  0  0  0  0  0  0  0  0  0
   -2.0903    1.1905    2.3309 H   0  0  0  0  0  0  0  0  0  0  0  0
  1  2  1  0  0  0  0
  2  3  1  0  0  0  0
  3  4  2  0  0  0  0
  4  5  2  0  0  0  0
  4  6  2  0  0  0  0
  6  7  1  0  0  0  0
  7  8  1  0  0  0  0
  4  9  1  0  0  0  0
  9 10  1  0  0  0  0
 10 11  1  0  0  0  0
 11 12  1  0  0  0  0
 12 13  2  0  0  0  0
 12 14  2  0  0  0  0
 14 15  1  0  0  0  0
 15 16  1  0  0  0  0
 12 17  2  0  0  0  0
 17 18  1  0  0  0  0
 18 19  1  0  0  0  0
  1 20  1  0  0  0  0
  1 21  1  0  0  0  0
  1 22  1  0  0  0  0
  2 23  1  0  0  0  0
  2 24  1  0  0  0  0
  7 25  1  0  0  0  0
  7 26  1  0  0  0  0
  8 27  1  0  0  0  0
  8 28  1  0  0  0  0
  8 29  1  0  0  0  0
 10 30  1  0  0  0  0
 10 31  1  0  0  0  0
 15 32  1  0  0  0  0
 15 33  1  0  0  0  0
 16 34  1  0  0  0  0
 16 35  1  0  0  0  0
 16 36  1  0  0  0  0
 18 37  1  0  0  0  0
 18 38  1  0  0  0  0
 19 39  1  0  0  0  0
 19 40  1  0  0  0  0
 19 41  1  0  0  0  0
M  END
