 xtb: 6.7.1 (edcfbbe)
          04092505203D

 41 40  0     0  0            999 V2000
    4.2411   -1.8159   -0.8334 C   0  0  0  0  0  0  0  0  0  0  0  0
    4.5862   -0.3403   -0.8234 C   0  0  0  0  0  0  0  0  0  0  0  0
    3.6406    0.4423   -0.0773 O   0  0  0  0  0  0  0  0  0  0  0  0
    2.1164    0.6074   -0.5155 P   0  0  0  0  0  0  0  0  0  0  0  0
    1.8774    0.7497   -2.4523 S   0  0  0  0  0  0  0  0  0  0  0  0
    1.7234    1.9283    0.2476 O   0  0  0  0  0  0  0  0  0  0  0  0
    1.4139    2.0678    1.6531 C   0  0  0  0  0  0  0  0  0  0  0  0
    2.4893    1.4987    2.5527 C   0  0  0  0  0  0  0  0  0  0  0  0
    1.1334   -1.0087    0.4612 S   0  0  0  0  0  0  0  0  0  0  0  0
    0.0946   -1.6369   -0.8974 C   0  0  0  0  0  0  0  0  0  0  0  0
   -1.6151   -1.9063   -0.3905 S   0  0  0  0  0  0  0  0  0  0  0  0
   -2.0631    0.0727    0.2497 P   0  0  0  0  0  0  0  0  0  0  0  0
   -1.3360    1.4988   -0.8880 S   0  0  0  0  0  0  0  0  0  0  0  0
   -1.5573    0.2268    1.7381 O   0  0  0  0  0  0  0  0  0  0  0  0
   -2.1763   -0.3444    2.9203 C   0  0  0  0  0  0  0  0  0  0  0  0
   -2.0121   -1.8482    2.9906 C   0  0  0  0  0  0  0  0  0  0  0  0
   -3.6398    0.0678    0.4382 O   0  0  0  0  0  0  0  0  0  0  0  0
   -4.5584    0.3513   -0.6322 C   0  0  0  0  0  0  0  0  0  0  0  0
   -4.5197   -0.6995   -1.7225 C   0  0  0  0  0  0  0  0  0  0  0  0
    5.0536   -2.3687   -1.2938 H   0  0  0  0  0  0  0  0  0  0  0  0
    4.0854   -2.1775    0.1797 H   0  0  0  0  0  0  0  0  0  0  0  0
    3.3339   -1.9775   -1.4142 H   0  0  0  0  0  0  0  0  0  0  0  0
    4.6251    0.0497   -1.8455 H   0  0  0  0  0  0  0  0  0  0  0  0
    5.5340   -0.1511   -0.3174 H   0  0  0  0  0  0  0  0  0  0  0  0
    1.3092    3.1472    1.7752 H   0  0  0  0  0  0  0  0  0  0  0  0
    0.4478    1.5876    1.8349 H   0  0  0  0  0  0  0  0  0  0  0  0
    3.4518    1.9423    2.3115 H   0  0  0  0  0  0  0  0  0  0  0  0
    2.2382    1.7181    3.5858 H   0  0  0  0  0  0  0  0  0  0  0  0
    2.5560    0.4194    2.4239 H   0  0  0  0  0  0  0  0  0  0  0  0
    0.4692   -2.6098   -1.2060 H   0  0  0  0  0  0  0  0  0  0  0  0
    0.1394   -0.9176   -1.7205 H   0  0  0  0  0  0  0  0  0  0  0  0
   -1.6487    0.1526    3.7359 H   0  0  0  0  0  0  0  0  0  0  0  0
   -3.2293   -0.0590    2.9277 H   0  0  0  0  0  0  0  0  0  0  0  0
   -2.6157   -2.3370    2.2297 H   0  0  0  0  0  0  0  0  0  0  0  0
   -0.9695   -2.1194    2.8411 H   0  0  0  0  0  0  0  0  0  0  0  0
   -2.3332   -2.1896    3.9698 H   0  0  0  0  0  0  0  0  0  0  0  0
   -5.5297    0.3810   -0.1361 H   0  0  0  0  0  0  0  0  0  0  0  0
   -4.3177    1.3378   -1.0400 H   0  0  0  0  0  0  0  0  0  0  0  0
   -3.5711   -0.6503   -2.2551 H   0  0  0  0  0  0  0  0  0  0  0  0
   -4.6332   -1.6933   -1.2970 H   0  0  0  0  0  0  0  0  0  0  0  0
   -5.3248   -0.5132   -2.4262 H   0  0  0  0  0  0  0  0  0  0  0  0
  1  2  1  0  0  0  0
  2  3  1  0  0  0  0
  3  4  2  0  0  0  0
  4  5  2  0  0  0  0
  4  6  2  0  0  0  0
  6  7  1  0  0  0  0
  7  8  1  0  0  0  0
  4  9  1  0  0  0  0
  9 10  1  0  0  0  0
 10 11  1  0  0  0  0
 11 12  1  0  0  0  0
 12 13  2  0  0  0  0
 12 14  2  0  0  0  0
 14 15  1  0  0  0  0
 15 16  1  0  0  0  0
 12 17  2  0  0  0  0
 17 18  1  0  0  0  0
 18 19  1  0  0  0  0
  1 20  1  0  0  0  0
  1 21  1  0  0  0  0
  1 22  1  0  0  0  0
  2 23  1  0  0  0  0
  2 24  1  0  0  0  0
  7 25  1  0  0  0  0
  7 26  1  0  0  0  0
  8 27  1  0  0  0  0
  8 28  1  0  0  0  0
  8 29  1  0  0  0  0
 10 30  1  0  0  0  0
 10 31  1  0  0  0  0
 15 32  1  0  0  0  0
 15 33  1  0  0  0  0
 16 34  1  0  0  0  0
 16 35  1  0  0  0  0
 16 36  1  0  0  0  0
 18 37  1  0  0  0  0
 18 38  1  0  0  0  0
 19 39  1  0  0  0  0
 19 40  1  0  0  0  0
 19 41  1  0  0  0  0
M  END
