 xtb: 6.7.1 (edcfbbe)
          04092507313D

 38 37  0     0  0            999 V2000
    1.3130   -3.6305   -2.1746 C   0  0  0  0  0  0  0  0  0  0  0  0
    2.5625   -2.7650   -2.2006 C   0  0  0  0  0  0  0  0  0  0  0  0
    2.3548   -1.5704   -1.4240 O   0  0  0  0  0  0  0  0  0  0  0  0
    2.7474   -1.5581   -0.1656 C   0  0  0  0  0  0  0  0  0  0  0  0
    3.3458   -2.4566    0.3806 O   0  0  0  0  0  0  0  0  0  0  0  0
    2.3869   -0.2549    0.5272 C   0  0  0  0  0  0  0  0  0  0  0  0
    0.9874    0.2162    0.1477 C   0  0  0  0  0  0  0  0  0  0  0  0
    0.9175    0.3555   -0.9361 H   0  0  0  0  0  0  0  0  0  0  0  0
    0.6232    1.5271    0.8188 C   0  0  0  0  0  0  0  0  0  0  0  0
   -0.3870    1.6719    1.4774 O   0  0  0  0  0  0  0  0  0  0  0  0
    1.5072    2.4582    0.5916 O   0  0  0  0  0  0  0  0  0  0  0  0
    1.2432    3.7762    1.1216 C   0  0  0  0  0  0  0  0  0  0  0  0
    2.3693    4.6890    0.6816 C   0  0  0  0  0  0  0  0  0  0  0  0
   -0.2599   -1.0289    0.6312 S   0  0  0  0  0  0  0  0  0  0  0  0
   -1.9979    0.0443    0.0414 P   0  0  0  0  0  0  0  0  0  0  0  0
   -1.7642    1.4022   -1.3477 S   0  0  0  0  0  0  0  0  0  0  0  0
   -2.9427   -1.1690   -0.4288 O   0  0  0  0  0  0  0  0  0  0  0  0
   -2.6530   -1.9268   -1.6061 C   0  0  0  0  0  0  0  0  0  0  0  0
   -2.8345    0.5317    1.2872 O   0  0  0  0  0  0  0  0  0  0  0  0
   -3.0769   -0.3009    2.4368 C   0  0  0  0  0  0  0  0  0  0  0  0
    1.4762   -4.5175   -2.7774 H   0  0  0  0  0  0  0  0  0  0  0  0
    1.0897   -3.9298   -1.1528 H   0  0  0  0  0  0  0  0  0  0  0  0
    0.4677   -3.0766   -2.5744 H   0  0  0  0  0  0  0  0  0  0  0  0
    2.7801   -2.4111   -3.2088 H   0  0  0  0  0  0  0  0  0  0  0  0
    3.4211   -3.3034   -1.7902 H   0  0  0  0  0  0  0  0  0  0  0  0
    3.1048    0.5092    0.2213 H   0  0  0  0  0  0  0  0  0  0  0  0
    2.4701   -0.4151    1.6027 H   0  0  0  0  0  0  0  0  0  0  0  0
    0.2726    4.1063    0.7383 H   0  0  0  0  0  0  0  0  0  0  0  0
    1.1773    3.7000    2.2110 H   0  0  0  0  0  0  0  0  0  0  0  0
    3.3163    4.3322    1.0746 H   0  0  0  0  0  0  0  0  0  0  0  0
    2.4235    4.7154   -0.4025 H   0  0  0  0  0  0  0  0  0  0  0  0
    2.1816    5.6903    1.0542 H   0  0  0  0  0  0  0  0  0  0  0  0
   -1.8197   -2.6027   -1.4132 H   0  0  0  0  0  0  0  0  0  0  0  0
   -2.4107   -1.2565   -2.4327 H   0  0  0  0  0  0  0  0  0  0  0  0
   -3.5579   -2.4875   -1.8257 H   0  0  0  0  0  0  0  0  0  0  0  0
   -2.1334   -0.5179    2.9375 H   0  0  0  0  0  0  0  0  0  0  0  0
   -3.5668   -1.2247    2.1338 H   0  0  0  0  0  0  0  0  0  0  0  0
   -3.7232    0.2901    3.0803 H   0  0  0  0  0  0  0  0  0  0  0  0
  1  2  1  0  0  0  0
  2  3  1  0  0  0  0
  3  4  1  0  0  0  0
  4  5  2  0  0  0  0
  4  6  1  0  0  0  0
  6  7  1  0  0  0  0
  7  8  1  0  0  0  0
  7  9  1  0  0  0  0
  9 10  2  0  0  0  0
  9 11  4  0  0  0  0
 11 12  1  0  0  0  0
 12 13  1  0  0  0  0
  7 14  1  0  0  0  0
 14 15  1  0  0  0  0
 15 16  2  0  0  0  0
 15 17  1  0  0  0  0
 17 18  1  0  0  0  0
 15 19  2  0  0  0  0
 19 20  1  0  0  0  0
  1 21  1  0  0  0  0
  1 22  1  0  0  0  0
  1 23  1  0  0  0  0
  2 24  1  0  0  0  0
  2 25  1  0  0  0  0
  6 26  1  0  0  0  0
  6 27  1  0  0  0  0
 12 28  1  0  0  0  0
 12 29  1  0  0  0  0
 13 30  1  0  0  0  0
 13 31  1  0  0  0  0
 13 32  1  0  0  0  0
 18 33  1  0  0  0  0
 18 34  1  0  0  0  0
 18 35  1  0  0  0  0
 20 36  1  0  0  0  0
 20 37  1  0  0  0  0
 20 38  1  0  0  0  0
M  END
