 xtb: 6.7.1 (edcfbbe)
          04092505213D

 41 40  0     0  0            999 V2000
    1.4721   -0.8863   -3.1799 C   0  0  0  0  0  0  0  0  0  0  0  0
    2.6408   -1.3272   -2.3215 C   0  0  0  0  0  0  0  0  0  0  0  0
    2.2260   -1.4932   -0.9447 O   0  0  0  0  0  0  0  0  0  0  0  0
    2.3967   -0.3557    0.1404 P   0  0  0  0  0  0  0  0  0  0  0  0
    1.7584    1.4495   -0.3100 S   0  0  0  0  0  0  0  0  0  0  0  0
    3.9652   -0.4236    0.4064 O   0  0  0  0  0  0  0  0  0  0  0  0
    4.6780    0.6095    1.1066 C   0  0  0  0  0  0  0  0  0  0  0  0
    4.3097    0.6557    2.5755 C   0  0  0  0  0  0  0  0  0  0  0  0
    1.5123   -1.3497    1.7753 S   0  0  0  0  0  0  0  0  0  0  0  0
   -0.1351   -0.6266    1.6314 C   0  0  0  0  0  0  0  0  0  0  0  0
   -0.9244   -1.0569    0.0489 S   0  0  0  0  0  0  0  0  0  0  0  0
   -2.4090    0.4814    0.1295 P   0  0  0  0  0  0  0  0  0  0  0  0
   -1.8820    2.1637    0.9767 S   0  0  0  0  0  0  0  0  0  0  0  0
   -3.6079   -0.1364    0.9463 O   0  0  0  0  0  0  0  0  0  0  0  0
   -4.2905   -1.3599    0.5761 C   0  0  0  0  0  0  0  0  0  0  0  0
   -5.5644   -1.0530   -0.1843 C   0  0  0  0  0  0  0  0  0  0  0  0
   -2.9826    0.5011   -1.3507 O   0  0  0  0  0  0  0  0  0  0  0  0
   -2.2059    0.6639   -2.5509 C   0  0  0  0  0  0  0  0  0  0  0  0
   -1.4259    1.9614   -2.5731 C   0  0  0  0  0  0  0  0  0  0  0  0
    1.7836   -0.8451   -4.2186 H   0  0  0  0  0  0  0  0  0  0  0  0
    0.6528   -1.5924   -3.0739 H   0  0  0  0  0  0  0  0  0  0  0  0
    1.1327    0.0999   -2.8710 H   0  0  0  0  0  0  0  0  0  0  0  0
    3.4612   -0.6061   -2.3671 H   0  0  0  0  0  0  0  0  0  0  0  0
    3.0025   -2.3142   -2.6142 H   0  0  0  0  0  0  0  0  0  0  0  0
    5.7273    0.3492    0.9613 H   0  0  0  0  0  0  0  0  0  0  0  0
    4.4610    1.5687    0.6248 H   0  0  0  0  0  0  0  0  0  0  0  0
    4.4221   -0.3281    3.0240 H   0  0  0  0  0  0  0  0  0  0  0  0
    4.9545    1.3634    3.0868 H   0  0  0  0  0  0  0  0  0  0  0  0
    3.2748    0.9768    2.6901 H   0  0  0  0  0  0  0  0  0  0  0  0
   -0.0726    0.4641    1.6898 H   0  0  0  0  0  0  0  0  0  0  0  0
   -0.7199   -1.0291    2.4554 H   0  0  0  0  0  0  0  0  0  0  0  0
   -3.6115   -1.9800   -0.0162 H   0  0  0  0  0  0  0  0  0  0  0  0
   -4.5058   -1.8512    1.5266 H   0  0  0  0  0  0  0  0  0  0  0  0
   -6.0844   -1.9819   -0.3969 H   0  0  0  0  0  0  0  0  0  0  0  0
   -6.2061   -0.4100    0.4118 H   0  0  0  0  0  0  0  0  0  0  0  0
   -5.3344   -0.5467   -1.1177 H   0  0  0  0  0  0  0  0  0  0  0  0
   -1.5354   -0.1945   -2.6455 H   0  0  0  0  0  0  0  0  0  0  0  0
   -2.9542    0.6390   -3.3452 H   0  0  0  0  0  0  0  0  0  0  0  0
   -0.9501    2.0811   -3.5413 H   0  0  0  0  0  0  0  0  0  0  0  0
   -2.0875    2.8049   -2.3910 H   0  0  0  0  0  0  0  0  0  0  0  0
   -0.6571    1.9620   -1.8006 H   0  0  0  0  0  0  0  0  0  0  0  0
  1  2  1  0  0  0  0
  2  3  1  0  0  0  0
  3  4  2  0  0  0  0
  4  5  2  0  0  0  0
  4  6  2  0  0  0  0
  6  7  1  0  0  0  0
  7  8  1  0  0  0  0
  4  9  1  0  0  0  0
  9 10  1  0  0  0  0
 10 11  1  0  0  0  0
 11 12  1  0  0  0  0
 12 13  2  0  0  0  0
 12 14  2  0  0  0  0
 14 15  1  0  0  0  0
 15 16  1  0  0  0  0
 12 17  2  0  0  0  0
 17 18  1  0  0  0  0
 18 19  1  0  0  0  0
  1 20  1  0  0  0  0
  1 21  1  0  0  0  0
  1 22  1  0  0  0  0
  2 23  1  0  0  0  0
  2 24  1  0  0  0  0
  7 25  1  0  0  0  0
  7 26  1  0  0  0  0
  8 27  1  0  0  0  0
  8 28  1  0  0  0  0
  8 29  1  0  0  0  0
 10 30  1  0  0  0  0
 10 31  1  0  0  0  0
 15 32  1  0  0  0  0
 15 33  1  0  0  0  0
 16 34  1  0  0  0  0
 16 35  1  0  0  0  0
 16 36  1  0  0  0  0
 18 37  1  0  0  0  0
 18 38  1  0  0  0  0
 19 39  1  0  0  0  0
 19 40  1  0  0  0  0
 19 41  1  0  0  0  0
M  END
