 xtb: 6.7.1 (edcfbbe)
          04092505203D

 41 40  0     0  0            999 V2000
    4.7710   -1.3549   -1.0224 C   0  0  0  0  0  0  0  0  0  0  0  0
    4.7484    0.0533   -0.4643 C   0  0  0  0  0  0  0  0  0  0  0  0
    3.5799    0.2994    0.3377 O   0  0  0  0  0  0  0  0  0  0  0  0
    2.1145    0.3720   -0.2826 P   0  0  0  0  0  0  0  0  0  0  0  0
    2.0571    1.2435   -2.0432 S   0  0  0  0  0  0  0  0  0  0  0  0
    1.3371    1.0585    0.9134 O   0  0  0  0  0  0  0  0  0  0  0  0
    1.4545    2.4768    1.1607 C   0  0  0  0  0  0  0  0  0  0  0  0
    0.5598    2.8121    2.3344 C   0  0  0  0  0  0  0  0  0  0  0  0
    1.3880   -1.5897   -0.1362 S   0  0  0  0  0  0  0  0  0  0  0  0
    0.1912   -1.5935   -1.5164 C   0  0  0  0  0  0  0  0  0  0  0  0
   -1.4991   -1.9191   -0.9751 S   0  0  0  0  0  0  0  0  0  0  0  0
   -1.8472   -0.1029    0.0813 P   0  0  0  0  0  0  0  0  0  0  0  0
   -1.3361    1.5345   -0.8602 S   0  0  0  0  0  0  0  0  0  0  0  0
   -1.1612   -0.2430    1.4879 O   0  0  0  0  0  0  0  0  0  0  0  0
   -1.3829   -1.3621    2.3847 C   0  0  0  0  0  0  0  0  0  0  0  0
   -2.4334   -1.0177    3.4194 C   0  0  0  0  0  0  0  0  0  0  0  0
   -3.3923   -0.2249    0.4278 O   0  0  0  0  0  0  0  0  0  0  0  0
   -4.3991   -0.0989   -0.5976 C   0  0  0  0  0  0  0  0  0  0  0  0
   -5.7382    0.0851    0.0866 C   0  0  0  0  0  0  0  0  0  0  0  0
    4.6310   -2.0804   -0.2252 H   0  0  0  0  0  0  0  0  0  0  0  0
    3.9730   -1.4755   -1.7537 H   0  0  0  0  0  0  0  0  0  0  0  0
    5.7243   -1.5313   -1.5100 H   0  0  0  0  0  0  0  0  0  0  0  0
    4.7696    0.7882   -1.2753 H   0  0  0  0  0  0  0  0  0  0  0  0
    5.5774    0.2303    0.2222 H   0  0  0  0  0  0  0  0  0  0  0  0
    2.5029    2.7058    1.3701 H   0  0  0  0  0  0  0  0  0  0  0  0
    1.1424    3.0082    0.2547 H   0  0  0  0  0  0  0  0  0  0  0  0
    0.8717    2.2524    3.2111 H   0  0  0  0  0  0  0  0  0  0  0  0
    0.6213    3.8763    2.5374 H   0  0  0  0  0  0  0  0  0  0  0  0
   -0.4679    2.5499    2.0943 H   0  0  0  0  0  0  0  0  0  0  0  0
    0.4528   -2.4077   -2.1872 H   0  0  0  0  0  0  0  0  0  0  0  0
    0.2425   -0.6279   -2.0276 H   0  0  0  0  0  0  0  0  0  0  0  0
   -1.6763   -2.2362    1.7966 H   0  0  0  0  0  0  0  0  0  0  0  0
   -0.4072   -1.5385    2.8419 H   0  0  0  0  0  0  0  0  0  0  0  0
   -3.3879   -0.8271    2.9363 H   0  0  0  0  0  0  0  0  0  0  0  0
   -2.5382   -1.8515    4.1065 H   0  0  0  0  0  0  0  0  0  0  0  0
   -2.1375   -0.1312    3.9734 H   0  0  0  0  0  0  0  0  0  0  0  0
   -4.1467    0.7598   -1.2283 H   0  0  0  0  0  0  0  0  0  0  0  0
   -4.3808   -1.0070   -1.2060 H   0  0  0  0  0  0  0  0  0  0  0  0
   -5.9542   -0.7718    0.7180 H   0  0  0  0  0  0  0  0  0  0  0  0
   -5.7249    0.9824    0.6989 H   0  0  0  0  0  0  0  0  0  0  0  0
   -6.5121    0.1787   -0.6680 H   0  0  0  0  0  0  0  0  0  0  0  0
  1  2  1  0  0  0  0
  2  3  1  0  0  0  0
  3  4  2  0  0  0  0
  4  5  2  0  0  0  0
  4  6  2  0  0  0  0
  6  7  1  0  0  0  0
  7  8  1  0  0  0  0
  4  9  1  0  0  0  0
  9 10  1  0  0  0  0
 10 11  1  0  0  0  0
 11 12  1  0  0  0  0
 12 13  2  0  0  0  0
 12 14  2  0  0  0  0
 14 15  1  0  0  0  0
 15 16  1  0  0  0  0
 12 17  2  0  0  0  0
 17 18  1  0  0  0  0
 18 19  1  0  0  0  0
  1 20  1  0  0  0  0
  1 21  1  0  0  0  0
  1 22  1  0  0  0  0
  2 23  1  0  0  0  0
  2 24  1  0  0  0  0
  7 25  1  0  0  0  0
  7 26  1  0  0  0  0
  8 27  1  0  0  0  0
  8 28  1  0  0  0  0
  8 29  1  0  0  0  0
 10 30  1  0  0  0  0
 10 31  1  0  0  0  0
 15 32  1  0  0  0  0
 15 33  1  0  0  0  0
 16 34  1  0  0  0  0
 16 35  1  0  0  0  0
 16 36  1  0  0  0  0
 18 37  1  0  0  0  0
 18 38  1  0  0  0  0
 19 39  1  0  0  0  0
 19 40  1  0  0  0  0
 19 41  1  0  0  0  0
M  END
