 xtb: 6.7.1 (edcfbbe)
          04092507313D

 38 37  0     0  0            999 V2000
    4.9153   -3.2550    0.3674 C   0  0  0  0  0  0  0  0  0  0  0  0
    4.4684   -1.9250   -0.2086 C   0  0  0  0  0  0  0  0  0  0  0  0
    3.0340   -1.9463   -0.3403 O   0  0  0  0  0  0  0  0  0  0  0  0
    2.4741   -1.1491   -1.2213 C   0  0  0  0  0  0  0  0  0  0  0  0
    3.0792   -0.4200   -1.9798 O   0  0  0  0  0  0  0  0  0  0  0  0
    0.9612   -1.2842   -1.2164 C   0  0  0  0  0  0  0  0  0  0  0  0
    0.3598    0.1130   -1.3033 C   0  0  0  0  0  0  0  0  0  0  0  0
    0.7418    0.6071   -2.2053 H   0  0  0  0  0  0  0  0  0  0  0  0
    0.8083    0.9617   -0.1285 C   0  0  0  0  0  0  0  0  0  0  0  0
    1.8622    0.7753    0.4343 O   0  0  0  0  0  0  0  0  0  0  0  0
   -0.0382    1.9355    0.1432 O   0  0  0  0  0  0  0  0  0  0  0  0
    0.3141    2.8685    1.1850 C   0  0  0  0  0  0  0  0  0  0  0  0
    1.1394    4.0124    0.6223 C   0  0  0  0  0  0  0  0  0  0  0  0
   -1.4439    0.1044   -1.5080 S   0  0  0  0  0  0  0  0  0  0  0  0
   -2.0921    0.0095    0.5171 P   0  0  0  0  0  0  0  0  0  0  0  0
   -0.8535   -0.7279    1.8455 S   0  0  0  0  0  0  0  0  0  0  0  0
   -2.6546    1.4259    0.9298 O   0  0  0  0  0  0  0  0  0  0  0  0
   -3.6300    2.1256    0.1288 C   0  0  0  0  0  0  0  0  0  0  0  0
   -3.4599   -0.8067    0.3694 O   0  0  0  0  0  0  0  0  0  0  0  0
   -3.4647   -2.2029    0.0495 C   0  0  0  0  0  0  0  0  0  0  0  0
    4.4304   -3.4226    1.3244 H   0  0  0  0  0  0  0  0  0  0  0  0
    4.6506   -4.0641   -0.3069 H   0  0  0  0  0  0  0  0  0  0  0  0
    5.9910   -3.2411    0.5066 H   0  0  0  0  0  0  0  0  0  0  0  0
    4.9036   -1.7345   -1.1948 H   0  0  0  0  0  0  0  0  0  0  0  0
    4.7222   -1.0920    0.4541 H   0  0  0  0  0  0  0  0  0  0  0  0
    0.6576   -1.7950   -0.3018 H   0  0  0  0  0  0  0  0  0  0  0  0
    0.6573   -1.8674   -2.0868 H   0  0  0  0  0  0  0  0  0  0  0  0
   -0.6436    3.2114    1.5776 H   0  0  0  0  0  0  0  0  0  0  0  0
    0.8634    2.3247    1.9592 H   0  0  0  0  0  0  0  0  0  0  0  0
    0.5993    4.5048   -0.1815 H   0  0  0  0  0  0  0  0  0  0  0  0
    1.3396    4.7278    1.4128 H   0  0  0  0  0  0  0  0  0  0  0  0
    2.0853    3.6364    0.2380 H   0  0  0  0  0  0  0  0  0  0  0  0
   -3.7845    3.0752    0.6343 H   0  0  0  0  0  0  0  0  0  0  0  0
   -4.5546    1.5537    0.0884 H   0  0  0  0  0  0  0  0  0  0  0  0
   -3.2400    2.2808   -0.8770 H   0  0  0  0  0  0  0  0  0  0  0  0
   -2.7655   -2.7382    0.6937 H   0  0  0  0  0  0  0  0  0  0  0  0
   -3.1937   -2.3433   -0.9965 H   0  0  0  0  0  0  0  0  0  0  0  0
   -4.4817   -2.5407    0.2311 H   0  0  0  0  0  0  0  0  0  0  0  0
  1  2  1  0  0  0  0
  2  3  1  0  0  0  0
  3  4  1  0  0  0  0
  4  5  2  0  0  0  0
  4  6  1  0  0  0  0
  6  7  1  0  0  0  0
  7  8  1  0  0  0  0
  7  9  1  0  0  0  0
  9 10  2  0  0  0  0
  9 11  1  0  0  0  0
 11 12  1  0  0  0  0
 12 13  1  0  0  0  0
  7 14  1  0  0  0  0
 14 15  1  0  0  0  0
 15 16  2  0  0  0  0
 15 17  2  0  0  0  0
 17 18  1  0  0  0  0
 15 19  1  0  0  0  0
 19 20  1  0  0  0  0
  1 21  1  0  0  0  0
  1 22  1  0  0  0  0
  1 23  1  0  0  0  0
  2 24  1  0  0  0  0
  2 25  1  0  0  0  0
  6 26  1  0  0  0  0
  6 27  1  0  0  0  0
 12 28  1  0  0  0  0
 12 29  1  0  0  0  0
 13 30  1  0  0  0  0
 13 31  1  0  0  0  0
 13 32  1  0  0  0  0
 18 33  1  0  0  0  0
 18 34  1  0  0  0  0
 18 35  1  0  0  0  0
 20 36  1  0  0  0  0
 20 37  1  0  0  0  0
 20 38  1  0  0  0  0
M  END
