 xtb: 6.7.1 (edcfbbe)
          04092505203D

 41 40  0     0  0            999 V2000
    3.7913    1.3732   -1.5594 C   0  0  0  0  0  0  0  0  0  0  0  0
    2.3567    1.6197   -1.1442 C   0  0  0  0  0  0  0  0  0  0  0  0
    1.6691    0.3930   -0.8377 O   0  0  0  0  0  0  0  0  0  0  0  0
    2.0337   -0.5086    0.4120 P   0  0  0  0  0  0  0  0  0  0  0  0
    2.6772    0.4389    2.0067 S   0  0  0  0  0  0  0  0  0  0  0  0
    3.0587   -1.5466   -0.2161 O   0  0  0  0  0  0  0  0  0  0  0  0
    3.8973   -2.3879    0.5965 C   0  0  0  0  0  0  0  0  0  0  0  0
    3.0997   -3.4343    1.3480 C   0  0  0  0  0  0  0  0  0  0  0  0
    0.2408   -1.5924    0.5901 S   0  0  0  0  0  0  0  0  0  0  0  0
   -0.6076   -0.4213    1.6881 C   0  0  0  0  0  0  0  0  0  0  0  0
   -0.8921    1.2077    0.9400 S   0  0  0  0  0  0  0  0  0  0  0  0
   -2.0119    0.6463   -0.7740 P   0  0  0  0  0  0  0  0  0  0  0  0
   -1.1578   -0.0185   -2.3995 S   0  0  0  0  0  0  0  0  0  0  0  0
   -2.7868    1.9843   -1.1169 O   0  0  0  0  0  0  0  0  0  0  0  0
   -3.6222    2.6971   -0.1697 C   0  0  0  0  0  0  0  0  0  0  0  0
   -2.9432    3.9787    0.2700 C   0  0  0  0  0  0  0  0  0  0  0  0
   -3.0893   -0.3269   -0.1067 O   0  0  0  0  0  0  0  0  0  0  0  0
   -3.5202   -1.5855   -0.6665 C   0  0  0  0  0  0  0  0  0  0  0  0
   -3.2081   -2.7188    0.2902 C   0  0  0  0  0  0  0  0  0  0  0  0
    4.3554    0.9712   -0.7181 H   0  0  0  0  0  0  0  0  0  0  0  0
    3.8250    0.6608   -2.3798 H   0  0  0  0  0  0  0  0  0  0  0  0
    4.2412    2.3101   -1.8722 H   0  0  0  0  0  0  0  0  0  0  0  0
    1.7656    2.0512   -1.9543 H   0  0  0  0  0  0  0  0  0  0  0  0
    2.3099    2.2697   -0.2636 H   0  0  0  0  0  0  0  0  0  0  0  0
    4.5845   -2.8404   -0.1195 H   0  0  0  0  0  0  0  0  0  0  0  0
    4.4504   -1.7514    1.2948 H   0  0  0  0  0  0  0  0  0  0  0  0
    3.7820   -4.1182    1.8424 H   0  0  0  0  0  0  0  0  0  0  0  0
    2.4719   -2.9566    2.0992 H   0  0  0  0  0  0  0  0  0  0  0  0
    2.4646   -3.9894    0.6619 H   0  0  0  0  0  0  0  0  0  0  0  0
    0.0101   -0.2333    2.5667 H   0  0  0  0  0  0  0  0  0  0  0  0
   -1.5584   -0.8722    1.9600 H   0  0  0  0  0  0  0  0  0  0  0  0
   -4.5441    2.9057   -0.7151 H   0  0  0  0  0  0  0  0  0  0  0  0
   -3.8355    2.0458    0.6807 H   0  0  0  0  0  0  0  0  0  0  0  0
   -2.7016    4.5871   -0.5970 H   0  0  0  0  0  0  0  0  0  0  0  0
   -3.6134    4.5307    0.9212 H   0  0  0  0  0  0  0  0  0  0  0  0
   -2.0244    3.7568    0.8090 H   0  0  0  0  0  0  0  0  0  0  0  0
   -4.5958   -1.4850   -0.8240 H   0  0  0  0  0  0  0  0  0  0  0  0
   -3.0224   -1.7314   -1.6308 H   0  0  0  0  0  0  0  0  0  0  0  0
   -3.6577   -2.5264    1.2603 H   0  0  0  0  0  0  0  0  0  0  0  0
   -3.6168   -3.6391   -0.1142 H   0  0  0  0  0  0  0  0  0  0  0  0
   -2.1320   -2.8336    0.4073 H   0  0  0  0  0  0  0  0  0  0  0  0
  1  2  1  0  0  0  0
  2  3  1  0  0  0  0
  3  4  2  0  0  0  0
  4  5  2  0  0  0  0
  4  6  2  0  0  0  0
  6  7  1  0  0  0  0
  7  8  1  0  0  0  0
  4  9  1  0  0  0  0
  9 10  1  0  0  0  0
 10 11  1  0  0  0  0
 11 12  1  0  0  0  0
 12 13  2  0  0  0  0
 12 14  2  0  0  0  0
 14 15  1  0  0  0  0
 15 16  1  0  0  0  0
 12 17  2  0  0  0  0
 17 18  1  0  0  0  0
 18 19  1  0  0  0  0
  1 20  1  0  0  0  0
  1 21  1  0  0  0  0
  1 22  1  0  0  0  0
  2 23  1  0  0  0  0
  2 24  1  0  0  0  0
  7 25  1  0  0  0  0
  7 26  1  0  0  0  0
  8 27  1  0  0  0  0
  8 28  1  0  0  0  0
  8 29  1  0  0  0  0
 10 30  1  0  0  0  0
 10 31  1  0  0  0  0
 15 32  1  0  0  0  0
 15 33  1  0  0  0  0
 16 34  1  0  0  0  0
 16 35  1  0  0  0  0
 16 36  1  0  0  0  0
 18 37  1  0  0  0  0
 18 38  1  0  0  0  0
 19 39  1  0  0  0  0
 19 40  1  0  0  0  0
 19 41  1  0  0  0  0
M  END
