 xtb: 6.7.1 (edcfbbe)
          04092505203D

 41 40  0     0  0            999 V2000
    0.7214    0.5580    3.5838 C   0  0  0  0  0  0  0  0  0  0  0  0
    2.0134    0.5432    2.7930 C   0  0  0  0  0  0  0  0  0  0  0  0
    1.6977    0.6548    1.3832 O   0  0  0  0  0  0  0  0  0  0  0  0
    2.4484   -0.1883    0.2736 P   0  0  0  0  0  0  0  0  0  0  0  0
    2.9746   -2.0086    0.7919 S   0  0  0  0  0  0  0  0  0  0  0  0
    3.6593    0.7754   -0.0904 O   0  0  0  0  0  0  0  0  0  0  0  0
    4.8110    0.3229   -0.8237 C   0  0  0  0  0  0  0  0  0  0  0  0
    4.4701   -0.0283   -2.2574 C   0  0  0  0  0  0  0  0  0  0  0  0
    1.0836    0.0031   -1.3237 S   0  0  0  0  0  0  0  0  0  0  0  0
    0.0044   -1.3625   -0.8049 C   0  0  0  0  0  0  0  0  0  0  0  0
   -1.1208   -0.9020    0.5290 S   0  0  0  0  0  0  0  0  0  0  0  0
   -2.3891    0.3312   -0.6675 P   0  0  0  0  0  0  0  0  0  0  0  0
   -2.6469   -0.2551   -2.5166 S   0  0  0  0  0  0  0  0  0  0  0  0
   -1.7771    1.7825   -0.6201 O   0  0  0  0  0  0  0  0  0  0  0  0
   -1.1938    2.4619    0.5169 C   0  0  0  0  0  0  0  0  0  0  0  0
   -2.1276    2.5242    1.7063 C   0  0  0  0  0  0  0  0  0  0  0  0
   -3.7245    0.4726    0.1816 O   0  0  0  0  0  0  0  0  0  0  0  0
   -4.8184   -0.4531    0.0584 C   0  0  0  0  0  0  0  0  0  0  0  0
   -4.4666   -1.8330    0.5757 C   0  0  0  0  0  0  0  0  0  0  0  0
    0.9531    0.4549    4.6389 H   0  0  0  0  0  0  0  0  0  0  0  0
    0.1921    1.4917    3.4213 H   0  0  0  0  0  0  0  0  0  0  0  0
    0.0859   -0.2680    3.2738 H   0  0  0  0  0  0  0  0  0  0  0  0
    2.5645   -0.3892    2.9551 H   0  0  0  0  0  0  0  0  0  0  0  0
    2.6529    1.3910    3.0460 H   0  0  0  0  0  0  0  0  0  0  0  0
    5.5046    1.1629   -0.7672 H   0  0  0  0  0  0  0  0  0  0  0  0
    5.2312   -0.5446   -0.3049 H   0  0  0  0  0  0  0  0  0  0  0  0
    3.9570    0.8008   -2.7388 H   0  0  0  0  0  0  0  0  0  0  0  0
    5.3824   -0.2525   -2.8007 H   0  0  0  0  0  0  0  0  0  0  0  0
    3.8206   -0.9027   -2.2828 H   0  0  0  0  0  0  0  0  0  0  0  0
    0.6168   -2.1895   -0.4439 H   0  0  0  0  0  0  0  0  0  0  0  0
   -0.5778   -1.6484   -1.6818 H   0  0  0  0  0  0  0  0  0  0  0  0
   -0.2583    1.9576    0.7753 H   0  0  0  0  0  0  0  0  0  0  0  0
   -0.9742    3.4553    0.1222 H   0  0  0  0  0  0  0  0  0  0  0  0
   -2.2905    1.5278    2.1118 H   0  0  0  0  0  0  0  0  0  0  0  0
   -1.6856    3.1549    2.4720 H   0  0  0  0  0  0  0  0  0  0  0  0
   -3.0853    2.9431    1.4084 H   0  0  0  0  0  0  0  0  0  0  0  0
   -5.6140    0.0066    0.6463 H   0  0  0  0  0  0  0  0  0  0  0  0
   -5.1136   -0.5015   -0.9944 H   0  0  0  0  0  0  0  0  0  0  0  0
   -5.3590   -2.4506    0.5823 H   0  0  0  0  0  0  0  0  0  0  0  0
   -3.7243   -2.2963   -0.0724 H   0  0  0  0  0  0  0  0  0  0  0  0
   -4.0636   -1.7700    1.5831 H   0  0  0  0  0  0  0  0  0  0  0  0
  1  2  1  0  0  0  0
  2  3  1  0  0  0  0
  3  4  2  0  0  0  0
  4  5  2  0  0  0  0
  4  6  2  0  0  0  0
  6  7  1  0  0  0  0
  7  8  1  0  0  0  0
  4  9  1  0  0  0  0
  9 10  1  0  0  0  0
 10 11  1  0  0  0  0
 11 12  1  0  0  0  0
 12 13  2  0  0  0  0
 12 14  2  0  0  0  0
 14 15  1  0  0  0  0
 15 16  1  0  0  0  0
 12 17  2  0  0  0  0
 17 18  1  0  0  0  0
 18 19  1  0  0  0  0
  1 20  1  0  0  0  0
  1 21  1  0  0  0  0
  1 22  1  0  0  0  0
  2 23  1  0  0  0  0
  2 24  1  0  0  0  0
  7 25  1  0  0  0  0
  7 26  1  0  0  0  0
  8 27  1  0  0  0  0
  8 28  1  0  0  0  0
  8 29  1  0  0  0  0
 10 30  1  0  0  0  0
 10 31  1  0  0  0  0
 15 32  1  0  0  0  0
 15 33  1  0  0  0  0
 16 34  1  0  0  0  0
 16 35  1  0  0  0  0
 16 36  1  0  0  0  0
 18 37  1  0  0  0  0
 18 38  1  0  0  0  0
 19 39  1  0  0  0  0
 19 40  1  0  0  0  0
 19 41  1  0  0  0  0
M  END
