 xtb: 6.7.1 (edcfbbe)
          04092505213D

 41 40  0     0  0            999 V2000
    4.0536   -1.3123   -2.5534 C   0  0  0  0  0  0  0  0  0  0  0  0
    4.0392    0.1249   -2.0764 C   0  0  0  0  0  0  0  0  0  0  0  0
    3.4052    0.2713   -0.7907 O   0  0  0  0  0  0  0  0  0  0  0  0
    1.8637   -0.0152   -0.5568 P   0  0  0  0  0  0  0  0  0  0  0  0
    0.6603    0.5739   -1.9824 S   0  0  0  0  0  0  0  0  0  0  0  0
    1.5824    0.7235    0.8092 O   0  0  0  0  0  0  0  0  0  0  0  0
    2.5190    0.9057    1.8991 C   0  0  0  0  0  0  0  0  0  0  0  0
    2.9242   -0.4031    2.5434 C   0  0  0  0  0  0  0  0  0  0  0  0
    1.7298   -2.0992   -0.1698 S   0  0  0  0  0  0  0  0  0  0  0  0
   -0.0726   -2.1585   -0.0885 C   0  0  0  0  0  0  0  0  0  0  0  0
   -0.7531   -1.3680    1.4147 S   0  0  0  0  0  0  0  0  0  0  0  0
   -1.8203    0.3014    0.7238 P   0  0  0  0  0  0  0  0  0  0  0  0
   -1.1647    2.1503    0.6063 S   0  0  0  0  0  0  0  0  0  0  0  0
   -2.9344    0.1433    1.8585 O   0  0  0  0  0  0  0  0  0  0  0  0
   -3.7284    1.2320    2.3531 C   0  0  0  0  0  0  0  0  0  0  0  0
   -4.8135    1.6206    1.3686 C   0  0  0  0  0  0  0  0  0  0  0  0
   -2.4497   -0.3025   -0.6079 O   0  0  0  0  0  0  0  0  0  0  0  0
   -2.8776    0.4603   -1.7543 C   0  0  0  0  0  0  0  0  0  0  0  0
   -2.6961   -0.3917   -2.9935 C   0  0  0  0  0  0  0  0  0  0  0  0
    4.4675   -1.9633   -1.7878 H   0  0  0  0  0  0  0  0  0  0  0  0
    3.0412   -1.6396   -2.7831 H   0  0  0  0  0  0  0  0  0  0  0  0
    4.6579   -1.3817   -3.4522 H   0  0  0  0  0  0  0  0  0  0  0  0
    3.5149    0.7640   -2.7933 H   0  0  0  0  0  0  0  0  0  0  0  0
    5.0478    0.5056   -1.9084 H   0  0  0  0  0  0  0  0  0  0  0  0
    3.3868    1.4439    1.5134 H   0  0  0  0  0  0  0  0  0  0  0  0
    1.9646    1.5432    2.5907 H   0  0  0  0  0  0  0  0  0  0  0  0
    3.5146   -1.0003    1.8518 H   0  0  0  0  0  0  0  0  0  0  0  0
    3.5211   -0.1875    3.4242 H   0  0  0  0  0  0  0  0  0  0  0  0
    2.0433   -0.9694    2.8388 H   0  0  0  0  0  0  0  0  0  0  0  0
   -0.3458   -3.2092   -0.0446 H   0  0  0  0  0  0  0  0  0  0  0  0
   -0.4943   -1.6720   -0.9681 H   0  0  0  0  0  0  0  0  0  0  0  0
   -4.1448    0.8531    3.2874 H   0  0  0  0  0  0  0  0  0  0  0  0
   -3.0703    2.0838    2.5540 H   0  0  0  0  0  0  0  0  0  0  0  0
   -5.4023    0.7484    1.0959 H   0  0  0  0  0  0  0  0  0  0  0  0
   -5.4600    2.3668    1.8192 H   0  0  0  0  0  0  0  0  0  0  0  0
   -4.3596    2.0427    0.4720 H   0  0  0  0  0  0  0  0  0  0  0  0
   -3.9290    0.7164   -1.6027 H   0  0  0  0  0  0  0  0  0  0  0  0
   -2.2837    1.3790   -1.8093 H   0  0  0  0  0  0  0  0  0  0  0  0
   -3.1990   -1.3457   -2.8640 H   0  0  0  0  0  0  0  0  0  0  0  0
   -3.1223    0.1305   -3.8436 H   0  0  0  0  0  0  0  0  0  0  0  0
   -1.6387   -0.5614   -3.1814 H   0  0  0  0  0  0  0  0  0  0  0  0
  1  2  1  0  0  0  0
  2  3  1  0  0  0  0
  3  4  2  0  0  0  0
  4  5  2  0  0  0  0
  4  6  2  0  0  0  0
  6  7  1  0  0  0  0
  7  8  1  0  0  0  0
  4  9  1  0  0  0  0
  9 10  1  0  0  0  0
 10 11  1  0  0  0  0
 11 12  1  0  0  0  0
 12 13  2  0  0  0  0
 12 14  1  0  0  0  0
 14 15  1  0  0  0  0
 15 16  1  0  0  0  0
 12 17  2  0  0  0  0
 17 18  1  0  0  0  0
 18 19  1  0  0  0  0
  1 20  1  0  0  0  0
  1 21  1  0  0  0  0
  1 22  1  0  0  0  0
  2 23  1  0  0  0  0
  2 24  1  0  0  0  0
  7 25  1  0  0  0  0
  7 26  1  0  0  0  0
  8 27  1  0  0  0  0
  8 28  1  0  0  0  0
  8 29  1  0  0  0  0
 10 30  1  0  0  0  0
 10 31  1  0  0  0  0
 15 32  1  0  0  0  0
 15 33  1  0  0  0  0
 16 34  1  0  0  0  0
 16 35  1  0  0  0  0
 16 36  1  0  0  0  0
 18 37  1  0  0  0  0
 18 38  1  0  0  0  0
 19 39  1  0  0  0  0
 19 40  1  0  0  0  0
 19 41  1  0  0  0  0
M  END
