 xtb: 6.7.1 (edcfbbe)
          04092507313D

 38 37  0     0  0            999 V2000
    3.7975   -3.6421   -0.2805 C   0  0  0  0  0  0  0  0  0  0  0  0
    4.3602   -2.3769   -0.9083 C   0  0  0  0  0  0  0  0  0  0  0  0
    3.3657   -1.7251   -1.7245 O   0  0  0  0  0  0  0  0  0  0  0  0
    2.5169   -0.9075   -1.1439 C   0  0  0  0  0  0  0  0  0  0  0  0
    2.5226   -0.6263    0.0368 O   0  0  0  0  0  0  0  0  0  0  0  0
    1.5291   -0.3221   -2.1314 C   0  0  0  0  0  0  0  0  0  0  0  0
    0.3803    0.3268   -1.3710 C   0  0  0  0  0  0  0  0  0  0  0  0
   -0.2540    0.9061   -2.0495 H   0  0  0  0  0  0  0  0  0  0  0  0
    0.9340    1.2857   -0.3274 C   0  0  0  0  0  0  0  0  0  0  0  0
    1.7795    2.1070   -0.6001 O   0  0  0  0  0  0  0  0  0  0  0  0
    0.3279    1.1734    0.8360 O   0  0  0  0  0  0  0  0  0  0  0  0
    0.7480    2.0239    1.9221 C   0  0  0  0  0  0  0  0  0  0  0  0
    1.6959    1.2699    2.8388 C   0  0  0  0  0  0  0  0  0  0  0  0
   -0.6660   -0.9638   -0.6055 S   0  0  0  0  0  0  0  0  0  0  0  0
   -2.1445    0.2986    0.1936 P   0  0  0  0  0  0  0  0  0  0  0  0
   -2.3968    2.1172   -0.4838 S   0  0  0  0  0  0  0  0  0  0  0  0
   -3.3655   -0.6934   -0.1611 O   0  0  0  0  0  0  0  0  0  0  0  0
   -4.7189   -0.2861    0.0761 C   0  0  0  0  0  0  0  0  0  0  0  0
   -2.0723    0.2844    1.7898 O   0  0  0  0  0  0  0  0  0  0  0  0
   -1.8070   -0.9354    2.5039 C   0  0  0  0  0  0  0  0  0  0  0  0
    2.9805   -3.3929    0.3928 H   0  0  0  0  0  0  0  0  0  0  0  0
    3.4271   -4.3097   -1.0532 H   0  0  0  0  0  0  0  0  0  0  0  0
    4.5794   -4.1419    0.2816 H   0  0  0  0  0  0  0  0  0  0  0  0
    5.1732   -2.6005   -1.5988 H   0  0  0  0  0  0  0  0  0  0  0  0
    4.6949   -1.6757   -0.1388 H   0  0  0  0  0  0  0  0  0  0  0  0
    1.1734   -1.1004   -2.8049 H   0  0  0  0  0  0  0  0  0  0  0  0
    2.0517    0.4408   -2.7131 H   0  0  0  0  0  0  0  0  0  0  0  0
    1.2283    2.9069    1.4915 H   0  0  0  0  0  0  0  0  0  0  0  0
   -0.1756    2.3068    2.4305 H   0  0  0  0  0  0  0  0  0  0  0  0
    2.5347    0.8882    2.2607 H   0  0  0  0  0  0  0  0  0  0  0  0
    2.0630    1.9437    3.6055 H   0  0  0  0  0  0  0  0  0  0  0  0
    1.1862    0.4333    3.3077 H   0  0  0  0  0  0  0  0  0  0  0  0
   -5.3376   -1.0692   -0.3541 H   0  0  0  0  0  0  0  0  0  0  0  0
   -4.9127    0.6687   -0.4155 H   0  0  0  0  0  0  0  0  0  0  0  0
   -4.9072   -0.1880    1.1457 H   0  0  0  0  0  0  0  0  0  0  0  0
   -0.7498   -1.1848    2.4166 H   0  0  0  0  0  0  0  0  0  0  0  0
   -2.4095   -1.7520    2.1051 H   0  0  0  0  0  0  0  0  0  0  0  0
   -2.0706   -0.7284    3.5380 H   0  0  0  0  0  0  0  0  0  0  0  0
  1  2  1  0  0  0  0
  2  3  1  0  0  0  0
  3  4  4  0  0  0  0
  4  5  2  0  0  0  0
  4  6  1  0  0  0  0
  6  7  1  0  0  0  0
  7  8  1  0  0  0  0
  7  9  1  0  0  0  0
  9 10  2  0  0  0  0
  9 11  1  0  0  0  0
 11 12  1  0  0  0  0
 12 13  1  0  0  0  0
  7 14  1  0  0  0  0
 14 15  1  0  0  0  0
 15 16  2  0  0  0  0
 15 17  1  0  0  0  0
 17 18  1  0  0  0  0
 15 19  1  0  0  0  0
 19 20  1  0  0  0  0
  1 21  1  0  0  0  0
  1 22  1  0  0  0  0
  1 23  1  0  0  0  0
  2 24  1  0  0  0  0
  2 25  1  0  0  0  0
  6 26  1  0  0  0  0
  6 27  1  0  0  0  0
 12 28  1  0  0  0  0
 12 29  1  0  0  0  0
 13 30  1  0  0  0  0
 13 31  1  0  0  0  0
 13 32  1  0  0  0  0
 18 33  1  0  0  0  0
 18 34  1  0  0  0  0
 18 35  1  0  0  0  0
 20 36  1  0  0  0  0
 20 37  1  0  0  0  0
 20 38  1  0  0  0  0
M  END
