 xtb: 6.7.1 (edcfbbe)
          04032520063D

 19 19  0     0  0            999 V2000
    1.9246   -0.0001   -0.7793 C   0  0  0  0  0  0  0  0  0  0  0  0
    1.1177   -0.0000    0.4242 N   0  0  0  0  0  0  0  0  0  0  0  0
    0.2979    1.1938    0.5829 C   0  0  0  0  0  0  0  0  0  0  0  0
   -0.9527    1.1953   -0.3119 C   0  0  0  0  0  0  0  0  0  0  0  0
   -1.7663    0.0000   -0.1253 N   0  0  0  0  0  0  0  0  0  0  0  0
   -0.9527   -1.1953   -0.3119 C   0  0  0  0  0  0  0  0  0  0  0  0
    0.2979   -1.1938    0.5829 C   0  0  0  0  0  0  0  0  0  0  0  0
    2.5597   -0.8847   -0.7674 H   0  0  0  0  0  0  0  0  0  0  0  0
    2.5609    0.8839   -0.7668 H   0  0  0  0  0  0  0  0  0  0  0  0
    1.3476    0.0005   -1.7140 H   0  0  0  0  0  0  0  0  0  0  0  0
   -0.0147    1.2300    1.6330 H   0  0  0  0  0  0  0  0  0  0  0  0
    0.9143    2.0704    0.3775 H   0  0  0  0  0  0  0  0  0  0  0  0
   -1.5670    2.0712   -0.0970 H   0  0  0  0  0  0  0  0  0  0  0  0
   -0.6601    1.2315   -1.3654 H   0  0  0  0  0  0  0  0  0  0  0  0
   -2.1288   -0.0000    0.8254 H   0  0  0  0  0  0  0  0  0  0  0  0
   -1.5669   -2.0713   -0.0973 H   0  0  0  0  0  0  0  0  0  0  0  0
   -0.6600   -1.2314   -1.3655 H   0  0  0  0  0  0  0  0  0  0  0  0
   -0.0149   -1.2298    1.6330 H   0  0  0  0  0  0  0  0  0  0  0  0
    0.9142   -2.0705    0.3778 H   0  0  0  0  0  0  0  0  0  0  0  0
  1  2  1  0  0  0  0
  2  3  1  0  0  0  0
  3  4  1  0  0  0  0
  4  5  1  0  0  0  0
  5  6  1  0  0  0  0
  2  7  1  0  0  0  0
  6  7  1  0  0  0  0
  1  8  1  0  0  0  0
  1  9  1  0  0  0  0
  1 10  1  0  0  0  0
  3 11  1  0  0  0  0
  3 12  1  0  0  0  0
  4 13  1  0  0  0  0
  4 14  1  0  0  0  0
  5 15  1  0  0  0  0
  6 16  1  0  0  0  0
  6 17  1  0  0  0  0
  7 18  1  0  0  0  0
  7 19  1  0  0  0  0
M  END
