 xtb: 6.7.1 (edcfbbe)
          04092505213D

 41 40  0     0  0            999 V2000
    4.3226   -0.7916   -1.8476 C   0  0  0  0  0  0  0  0  0  0  0  0
    4.5639    0.1741   -0.7064 C   0  0  0  0  0  0  0  0  0  0  0  0
    3.3377    0.7144   -0.1505 O   0  0  0  0  0  0  0  0  0  0  0  0
    2.2292   -0.1067    0.6184 P   0  0  0  0  0  0  0  0  0  0  0  0
    1.3878    0.9598    2.0293 S   0  0  0  0  0  0  0  0  0  0  0  0
    3.0167   -1.3809    1.1499 O   0  0  0  0  0  0  0  0  0  0  0  0
    2.4995   -2.1906    2.2200 C   0  0  0  0  0  0  0  0  0  0  0  0
    1.2380   -2.9244    1.8137 C   0  0  0  0  0  0  0  0  0  0  0  0
    0.9908   -0.9277   -0.9289 S   0  0  0  0  0  0  0  0  0  0  0  0
    0.6509    0.5862   -1.8550 C   0  0  0  0  0  0  0  0  0  0  0  0
   -0.3557    1.7917   -0.9372 S   0  0  0  0  0  0  0  0  0  0  0  0
   -1.9478    0.4763   -0.4565 P   0  0  0  0  0  0  0  0  0  0  0  0
   -2.4558   -0.7256   -1.9232 S   0  0  0  0  0  0  0  0  0  0  0  0
   -3.0800    1.4596    0.0637 O   0  0  0  0  0  0  0  0  0  0  0  0
   -3.9452    2.1735   -0.8454 C   0  0  0  0  0  0  0  0  0  0  0  0
   -5.2768    1.4608   -0.9787 C   0  0  0  0  0  0  0  0  0  0  0  0
   -1.4448   -0.1892    0.8873 O   0  0  0  0  0  0  0  0  0  0  0  0
   -2.2999   -0.5384    1.9986 C   0  0  0  0  0  0  0  0  0  0  0  0
   -3.2497   -1.6599    1.6350 C   0  0  0  0  0  0  0  0  0  0  0  0
    5.2820   -1.1002   -2.2513 H   0  0  0  0  0  0  0  0  0  0  0  0
    3.7887   -1.6705   -1.4940 H   0  0  0  0  0  0  0  0  0  0  0  0
    3.7421   -0.3216   -2.6375 H   0  0  0  0  0  0  0  0  0  0  0  0
    5.0962    1.0668   -1.0389 H   0  0  0  0  0  0  0  0  0  0  0  0
    5.1167   -0.3101    0.1001 H   0  0  0  0  0  0  0  0  0  0  0  0
    3.3144   -2.8799    2.4450 H   0  0  0  0  0  0  0  0  0  0  0  0
    2.3072   -1.5421    3.0808 H   0  0  0  0  0  0  0  0  0  0  0  0
    0.4446   -2.2054    1.6092 H   0  0  0  0  0  0  0  0  0  0  0  0
    1.4105   -3.5126    0.9158 H   0  0  0  0  0  0  0  0  0  0  0  0
    0.9232   -3.5783    2.6206 H   0  0  0  0  0  0  0  0  0  0  0  0
    0.1114    0.2708   -2.7478 H   0  0  0  0  0  0  0  0  0  0  0  0
    1.5778    1.0966   -2.1071 H   0  0  0  0  0  0  0  0  0  0  0  0
   -4.0616    3.1633   -0.4003 H   0  0  0  0  0  0  0  0  0  0  0  0
   -3.4531    2.2651   -1.8173 H   0  0  0  0  0  0  0  0  0  0  0  0
   -5.9341    2.0498   -1.6099 H   0  0  0  0  0  0  0  0  0  0  0  0
   -5.1324    0.4829   -1.4334 H   0  0  0  0  0  0  0  0  0  0  0  0
   -5.7343    1.3344   -0.0015 H   0  0  0  0  0  0  0  0  0  0  0  0
   -1.5941   -0.8320    2.7782 H   0  0  0  0  0  0  0  0  0  0  0  0
   -2.8401    0.3561    2.3140 H   0  0  0  0  0  0  0  0  0  0  0  0
   -3.8346   -1.9354    2.5067 H   0  0  0  0  0  0  0  0  0  0  0  0
   -3.9205   -1.3336    0.8410 H   0  0  0  0  0  0  0  0  0  0  0  0
   -2.6950   -2.5261    1.2817 H   0  0  0  0  0  0  0  0  0  0  0  0
  1  2  1  0  0  0  0
  2  3  1  0  0  0  0
  3  4  2  0  0  0  0
  4  5  2  0  0  0  0
  4  6  2  0  0  0  0
  6  7  1  0  0  0  0
  7  8  1  0  0  0  0
  4  9  1  0  0  0  0
  9 10  1  0  0  0  0
 10 11  1  0  0  0  0
 11 12  1  0  0  0  0
 12 13  2  0  0  0  0
 12 14  2  0  0  0  0
 14 15  1  0  0  0  0
 15 16  1  0  0  0  0
 12 17  2  0  0  0  0
 17 18  1  0  0  0  0
 18 19  1  0  0  0  0
  1 20  1  0  0  0  0
  1 21  1  0  0  0  0
  1 22  1  0  0  0  0
  2 23  1  0  0  0  0
  2 24  1  0  0  0  0
  7 25  1  0  0  0  0
  7 26  1  0  0  0  0
  8 27  1  0  0  0  0
  8 28  1  0  0  0  0
  8 29  1  0  0  0  0
 10 30  1  0  0  0  0
 10 31  1  0  0  0  0
 15 32  1  0  0  0  0
 15 33  1  0  0  0  0
 16 34  1  0  0  0  0
 16 35  1  0  0  0  0
 16 36  1  0  0  0  0
 18 37  1  0  0  0  0
 18 38  1  0  0  0  0
 19 39  1  0  0  0  0
 19 40  1  0  0  0  0
 19 41  1  0  0  0  0
M  END
