 xtb: 6.7.1 (edcfbbe)
          04092505213D

 41 40  0     0  0            999 V2000
    4.7268   -1.0751   -1.2603 C   0  0  0  0  0  0  0  0  0  0  0  0
    4.2722    0.3654   -1.3729 C   0  0  0  0  0  0  0  0  0  0  0  0
    3.2363    0.6718   -0.4233 O   0  0  0  0  0  0  0  0  0  0  0  0
    1.7780    0.0602   -0.5574 P   0  0  0  0  0  0  0  0  0  0  0  0
    1.1306   -0.0323   -2.4063 S   0  0  0  0  0  0  0  0  0  0  0  0
    0.9271    0.9815    0.4141 O   0  0  0  0  0  0  0  0  0  0  0  0
    1.4698    1.8766    1.4189 C   0  0  0  0  0  0  0  0  0  0  0  0
    2.1021    1.1347    2.5772 C   0  0  0  0  0  0  0  0  0  0  0  0
    1.8542   -1.7917    0.4822 S   0  0  0  0  0  0  0  0  0  0  0  0
    0.1357   -1.7934    1.0796 C   0  0  0  0  0  0  0  0  0  0  0  0
   -1.1203   -1.5851   -0.2211 S   0  0  0  0  0  0  0  0  0  0  0  0
   -1.9052    0.3929    0.1160 P   0  0  0  0  0  0  0  0  0  0  0  0
   -1.5044    1.9369   -1.0257 S   0  0  0  0  0  0  0  0  0  0  0  0
   -1.6612    0.6482    1.6555 O   0  0  0  0  0  0  0  0  0  0  0  0
   -2.4362   -0.0404    2.6820 C   0  0  0  0  0  0  0  0  0  0  0  0
   -1.7034    0.0991    4.0000 C   0  0  0  0  0  0  0  0  0  0  0  0
   -3.4691    0.0608    0.0994 O   0  0  0  0  0  0  0  0  0  0  0  0
   -4.2443    0.1154   -1.1057 C   0  0  0  0  0  0  0  0  0  0  0  0
   -3.8271   -0.9539   -2.0950 C   0  0  0  0  0  0  0  0  0  0  0  0
    3.9128   -1.7416   -1.5452 H   0  0  0  0  0  0  0  0  0  0  0  0
    5.5657   -1.2403   -1.9285 H   0  0  0  0  0  0  0  0  0  0  0  0
    5.0252   -1.3027   -0.2404 H   0  0  0  0  0  0  0  0  0  0  0  0
    3.8933    0.5734   -2.3788 H   0  0  0  0  0  0  0  0  0  0  0  0
    5.0710    1.0650   -1.1233 H   0  0  0  0  0  0  0  0  0  0  0  0
    2.1903    2.5351    0.9316 H   0  0  0  0  0  0  0  0  0  0  0  0
    0.5950    2.4528    1.7276 H   0  0  0  0  0  0  0  0  0  0  0  0
    2.9300    0.5228    2.2263 H   0  0  0  0  0  0  0  0  0  0  0  0
    2.4767    1.8621    3.2908 H   0  0  0  0  0  0  0  0  0  0  0  0
    1.3738    0.4994    3.0737 H   0  0  0  0  0  0  0  0  0  0  0  0
    0.0152   -1.0037    1.8159 H   0  0  0  0  0  0  0  0  0  0  0  0
   -0.0218   -2.7779    1.5131 H   0  0  0  0  0  0  0  0  0  0  0  0
   -3.4167    0.4364    2.7200 H   0  0  0  0  0  0  0  0  0  0  0  0
   -2.5614   -1.0859    2.3902 H   0  0  0  0  0  0  0  0  0  0  0  0
   -1.5072    1.1475    4.2062 H   0  0  0  0  0  0  0  0  0  0  0  0
   -2.3268   -0.3084    4.7895 H   0  0  0  0  0  0  0  0  0  0  0  0
   -0.7612   -0.4420    3.9852 H   0  0  0  0  0  0  0  0  0  0  0  0
   -5.2707   -0.0269   -0.7651 H   0  0  0  0  0  0  0  0  0  0  0  0
   -4.1295    1.1110   -1.5468 H   0  0  0  0  0  0  0  0  0  0  0  0
   -2.8021   -0.7721   -2.4235 H   0  0  0  0  0  0  0  0  0  0  0  0
   -3.8766   -1.9389   -1.6375 H   0  0  0  0  0  0  0  0  0  0  0  0
   -4.4795   -0.9221   -2.9616 H   0  0  0  0  0  0  0  0  0  0  0  0
  1  2  1  0  0  0  0
  2  3  1  0  0  0  0
  3  4  2  0  0  0  0
  4  5  2  0  0  0  0
  4  6  2  0  0  0  0
  6  7  1  0  0  0  0
  7  8  1  0  0  0  0
  4  9  1  0  0  0  0
  9 10  1  0  0  0  0
 10 11  1  0  0  0  0
 11 12  1  0  0  0  0
 12 13  2  0  0  0  0
 12 14  2  0  0  0  0
 14 15  1  0  0  0  0
 15 16  1  0  0  0  0
 12 17  1  0  0  0  0
 17 18  1  0  0  0  0
 18 19  1  0  0  0  0
  1 20  1  0  0  0  0
  1 21  1  0  0  0  0
  1 22  1  0  0  0  0
  2 23  1  0  0  0  0
  2 24  1  0  0  0  0
  7 25  1  0  0  0  0
  7 26  1  0  0  0  0
  8 27  1  0  0  0  0
  8 28  1  0  0  0  0
  8 29  1  0  0  0  0
 10 30  1  0  0  0  0
 10 31  1  0  0  0  0
 15 32  1  0  0  0  0
 15 33  1  0  0  0  0
 16 34  1  0  0  0  0
 16 35  1  0  0  0  0
 16 36  1  0  0  0  0
 18 37  1  0  0  0  0
 18 38  1  0  0  0  0
 19 39  1  0  0  0  0
 19 40  1  0  0  0  0
 19 41  1  0  0  0  0
M  END
