 xtb: 6.7.1 (edcfbbe)
          04032520013D

 18 18  0     0  0            999 V2000
   -0.7598   -1.3117    0.0244 C   0  0  0  0  0  0  0  0  0  0  0  0
   -1.3723    0.0342   -0.3844 C   0  0  0  0  0  0  0  0  0  0  0  0
   -0.7121    1.1733    0.3848 C   0  0  0  0  0  0  0  0  0  0  0  0
    0.7598    1.3116   -0.0251 C   0  0  0  0  0  0  0  0  0  0  0  0
    1.3658   -0.0454   -0.4057 C   0  0  0  0  0  0  0  0  0  0  0  0
    0.7186   -1.1621    0.4061 C   0  0  0  0  0  0  0  0  0  0  0  0
   -0.8587   -2.0162   -0.8035 H   0  0  0  0  0  0  0  0  0  0  0  0
   -1.3084   -1.7256    0.8725 H   0  0  0  0  0  0  0  0  0  0  0  0
   -1.2293    0.2027   -1.4533 H   0  0  0  0  0  0  0  0  0  0  0  0
   -2.4470    0.0239   -0.1953 H   0  0  0  0  0  0  0  0  0  0  0  0
   -1.2379    2.1108    0.1964 H   0  0  0  0  0  0  0  0  0  0  0  0
   -0.7864    0.9651    1.4537 H   0  0  0  0  0  0  0  0  0  0  0  0
    0.8450    1.9925   -0.8741 H   0  0  0  0  0  0  0  0  0  0  0  0
    1.3221    1.7492    0.8019 H   0  0  0  0  0  0  0  0  0  0  0  0
    1.2055   -0.2440   -1.4669 H   0  0  0  0  0  0  0  0  0  0  0  0
    2.4435   -0.0300   -0.2345 H   0  0  0  0  0  0  0  0  0  0  0  0
    1.2414   -2.1046    0.2357 H   0  0  0  0  0  0  0  0  0  0  0  0
    0.8103   -0.9238    1.4673 H   0  0  0  0  0  0  0  0  0  0  0  0
  1  2  1  0  0  0  0
  2  3  1  0  0  0  0
  3  4  1  0  0  0  0
  4  5  1  0  0  0  0
  1  6  1  0  0  0  0
  5  6  1  0  0  0  0
  1  7  1  0  0  0  0
  1  8  1  0  0  0  0
  2  9  1  0  0  0  0
  2 10  1  0  0  0  0
  3 11  1  0  0  0  0
  3 12  1  0  0  0  0
  4 13  1  0  0  0  0
  4 14  1  0  0  0  0
  5 15  1  0  0  0  0
  5 16  1  0  0  0  0
  6 17  1  0  0  0  0
  6 18  1  0  0  0  0
M  END
