 xtb: 6.7.1 (edcfbbe)
          04092505213D

 41 40  0     0  0            999 V2000
    3.4881    1.5365   -1.5639 C   0  0  0  0  0  0  0  0  0  0  0  0
    3.5128    1.2701   -0.0719 C   0  0  0  0  0  0  0  0  0  0  0  0
    2.9427   -0.0201    0.2207 O   0  0  0  0  0  0  0  0  0  0  0  0
    1.6310   -0.2662    1.0973 P   0  0  0  0  0  0  0  0  0  0  0  0
    0.8024    1.3658    1.7809 S   0  0  0  0  0  0  0  0  0  0  0  0
    2.0487   -1.1529    2.3410 O   0  0  0  0  0  0  0  0  0  0  0  0
    2.4996   -2.5270    2.3335 C   0  0  0  0  0  0  0  0  0  0  0  0
    3.7792   -2.7167    1.5470 C   0  0  0  0  0  0  0  0  0  0  0  0
    0.5894   -1.6881   -0.0975 S   0  0  0  0  0  0  0  0  0  0  0  0
    0.6159   -0.8415   -1.6974 C   0  0  0  0  0  0  0  0  0  0  0  0
   -0.0763    0.8350   -1.6569 S   0  0  0  0  0  0  0  0  0  0  0  0
   -2.0251    0.2896   -1.1074 P   0  0  0  0  0  0  0  0  0  0  0  0
   -2.8024   -1.3165   -1.9026 S   0  0  0  0  0  0  0  0  0  0  0  0
   -2.9119    1.5526   -1.4745 O   0  0  0  0  0  0  0  0  0  0  0  0
   -2.5017    2.9376   -1.3718 C   0  0  0  0  0  0  0  0  0  0  0  0
   -2.2723    3.3794    0.0587 C   0  0  0  0  0  0  0  0  0  0  0  0
   -1.8692    0.2439    0.4845 O   0  0  0  0  0  0  0  0  0  0  0  0
   -2.8806   -0.3235    1.3382 C   0  0  0  0  0  0  0  0  0  0  0  0
   -2.4445   -1.6845    1.8432 C   0  0  0  0  0  0  0  0  0  0  0  0
    2.4629    1.6295   -1.9186 H   0  0  0  0  0  0  0  0  0  0  0  0
    4.0112    2.4666   -1.7608 H   0  0  0  0  0  0  0  0  0  0  0  0
    3.9840    0.7308   -2.0982 H   0  0  0  0  0  0  0  0  0  0  0  0
    2.9557    2.0373    0.4761 H   0  0  0  0  0  0  0  0  0  0  0  0
    4.5373    1.2282    0.3032 H   0  0  0  0  0  0  0  0  0  0  0  0
    2.6425   -2.7470    3.3930 H   0  0  0  0  0  0  0  0  0  0  0  0
    1.6975   -3.1517    1.9327 H   0  0  0  0  0  0  0  0  0  0  0  0
    3.6077   -2.5134    0.4927 H   0  0  0  0  0  0  0  0  0  0  0  0
    4.5503   -2.0453    1.9159 H   0  0  0  0  0  0  0  0  0  0  0  0
    4.1142   -3.7431    1.6603 H   0  0  0  0  0  0  0  0  0  0  0  0
    0.0198   -1.4622   -2.3672 H   0  0  0  0  0  0  0  0  0  0  0  0
    1.6403   -0.7464   -2.0495 H   0  0  0  0  0  0  0  0  0  0  0  0
   -1.5980    3.0737   -1.9719 H   0  0  0  0  0  0  0  0  0  0  0  0
   -3.3332    3.4764   -1.8294 H   0  0  0  0  0  0  0  0  0  0  0  0
   -3.1572    3.1866    0.6604 H   0  0  0  0  0  0  0  0  0  0  0  0
   -1.4262    2.8539    0.4994 H   0  0  0  0  0  0  0  0  0  0  0  0
   -2.0610    4.4441    0.0684 H   0  0  0  0  0  0  0  0  0  0  0  0
   -2.9872    0.3887    2.1592 H   0  0  0  0  0  0  0  0  0  0  0  0
   -3.8217   -0.3945    0.7836 H   0  0  0  0  0  0  0  0  0  0  0  0
   -1.4849   -1.5996    2.3494 H   0  0  0  0  0  0  0  0  0  0  0  0
   -3.1857   -2.0632    2.5394 H   0  0  0  0  0  0  0  0  0  0  0  0
   -2.3433   -2.3793    1.0118 H   0  0  0  0  0  0  0  0  0  0  0  0
  1  2  1  0  0  0  0
  2  3  1  0  0  0  0
  3  4  2  0  0  0  0
  4  5  2  0  0  0  0
  4  6  2  0  0  0  0
  6  7  1  0  0  0  0
  7  8  1  0  0  0  0
  4  9  1  0  0  0  0
  9 10  1  0  0  0  0
 10 11  1  0  0  0  0
 11 12  1  0  0  0  0
 12 13  2  0  0  0  0
 12 14  2  0  0  0  0
 14 15  1  0  0  0  0
 15 16  1  0  0  0  0
 12 17  1  0  0  0  0
 17 18  1  0  0  0  0
 18 19  1  0  0  0  0
  1 20  1  0  0  0  0
  1 21  1  0  0  0  0
  1 22  1  0  0  0  0
  2 23  1  0  0  0  0
  2 24  1  0  0  0  0
  7 25  1  0  0  0  0
  7 26  1  0  0  0  0
  8 27  1  0  0  0  0
  8 28  1  0  0  0  0
  8 29  1  0  0  0  0
 10 30  1  0  0  0  0
 10 31  1  0  0  0  0
 15 32  1  0  0  0  0
 15 33  1  0  0  0  0
 16 34  1  0  0  0  0
 16 35  1  0  0  0  0
 16 36  1  0  0  0  0
 18 37  1  0  0  0  0
 18 38  1  0  0  0  0
 19 39  1  0  0  0  0
 19 40  1  0  0  0  0
 19 41  1  0  0  0  0
M  END
