 xtb: 6.7.1 (edcfbbe)
          04092507313D

 38 37  0     0  0            999 V2000
    5.2378   -2.3729   -1.0152 C   0  0  0  0  0  0  0  0  0  0  0  0
    3.9142   -3.0733   -1.2771 C   0  0  0  0  0  0  0  0  0  0  0  0
    2.9883   -2.1890   -1.9403 O   0  0  0  0  0  0  0  0  0  0  0  0
    2.2496   -1.3879   -1.2053 C   0  0  0  0  0  0  0  0  0  0  0  0
    2.2542   -1.3600    0.0087 O   0  0  0  0  0  0  0  0  0  0  0  0
    1.3803   -0.4846   -2.0544 C   0  0  0  0  0  0  0  0  0  0  0  0
    0.3862    0.2474   -1.1636 C   0  0  0  0  0  0  0  0  0  0  0  0
   -0.1178    1.0464   -1.7182 H   0  0  0  0  0  0  0  0  0  0  0  0
    1.1198    0.8920    0.0017 C   0  0  0  0  0  0  0  0  0  0  0  0
    2.1326    1.5351   -0.1565 O   0  0  0  0  0  0  0  0  0  0  0  0
    0.5033    0.7194    1.1526 O   0  0  0  0  0  0  0  0  0  0  0  0
    1.0882    1.3041    2.3323 C   0  0  0  0  0  0  0  0  0  0  0  0
    0.5813    2.7195    2.5486 C   0  0  0  0  0  0  0  0  0  0  0  0
   -0.9020   -0.9046   -0.5820 S   0  0  0  0  0  0  0  0  0  0  0  0
   -2.1792    0.5153    0.3521 P   0  0  0  0  0  0  0  0  0  0  0  0
   -2.0149    2.3690   -0.2538 S   0  0  0  0  0  0  0  0  0  0  0  0
   -3.6224   -0.1317    0.0873 O   0  0  0  0  0  0  0  0  0  0  0  0
   -4.1848   -0.1746   -1.2285 C   0  0  0  0  0  0  0  0  0  0  0  0
   -2.1038    0.3616    1.9222 O   0  0  0  0  0  0  0  0  0  0  0  0
   -2.2081   -0.9186    2.5740 C   0  0  0  0  0  0  0  0  0  0  0  0
    5.9314   -3.0723   -0.5604 H   0  0  0  0  0  0  0  0  0  0  0  0
    5.6579   -2.0045   -1.9470 H   0  0  0  0  0  0  0  0  0  0  0  0
    5.0888   -1.5330   -0.3396 H   0  0  0  0  0  0  0  0  0  0  0  0
    3.4622   -3.4121   -0.3407 H   0  0  0  0  0  0  0  0  0  0  0  0
    4.0342   -3.9076   -1.9679 H   0  0  0  0  0  0  0  0  0  0  0  0
    0.8743   -1.0712   -2.8203 H   0  0  0  0  0  0  0  0  0  0  0  0
    2.0339    0.2430   -2.5408 H   0  0  0  0  0  0  0  0  0  0  0  0
    0.7848    0.6428    3.1442 H   0  0  0  0  0  0  0  0  0  0  0  0
    2.1747    1.2876    2.2101 H   0  0  0  0  0  0  0  0  0  0  0  0
    0.8905    3.3595    1.7249 H   0  0  0  0  0  0  0  0  0  0  0  0
   -0.5053    2.7227    2.6003 H   0  0  0  0  0  0  0  0  0  0  0  0
    0.9880    3.1092    3.4755 H   0  0  0  0  0  0  0  0  0  0  0  0
   -3.6467   -0.9007   -1.8375 H   0  0  0  0  0  0  0  0  0  0  0  0
   -4.1326    0.8126   -1.6904 H   0  0  0  0  0  0  0  0  0  0  0  0
   -5.2202   -0.4765   -1.0942 H   0  0  0  0  0  0  0  0  0  0  0  0
   -3.1546   -1.3918    2.3200 H   0  0  0  0  0  0  0  0  0  0  0  0
   -2.1587   -0.7006    3.6377 H   0  0  0  0  0  0  0  0  0  0  0  0
   -1.3767   -1.5553    2.2709 H   0  0  0  0  0  0  0  0  0  0  0  0
  1  2  1  0  0  0  0
  2  3  1  0  0  0  0
  3  4  4  0  0  0  0
  4  5  2  0  0  0  0
  4  6  1  0  0  0  0
  6  7  1  0  0  0  0
  7  8  1  0  0  0  0
  7  9  1  0  0  0  0
  9 10  2  0  0  0  0
  9 11  1  0  0  0  0
 11 12  1  0  0  0  0
 12 13  1  0  0  0  0
  7 14  1  0  0  0  0
 14 15  1  0  0  0  0
 15 16  2  0  0  0  0
 15 17  1  0  0  0  0
 17 18  1  0  0  0  0
 15 19  2  0  0  0  0
 19 20  1  0  0  0  0
  1 21  1  0  0  0  0
  1 22  1  0  0  0  0
  1 23  1  0  0  0  0
  2 24  1  0  0  0  0
  2 25  1  0  0  0  0
  6 26  1  0  0  0  0
  6 27  1  0  0  0  0
 12 28  1  0  0  0  0
 12 29  1  0  0  0  0
 13 30  1  0  0  0  0
 13 31  1  0  0  0  0
 13 32  1  0  0  0  0
 18 33  1  0  0  0  0
 18 34  1  0  0  0  0
 18 35  1  0  0  0  0
 20 36  1  0  0  0  0
 20 37  1  0  0  0  0
 20 38  1  0  0  0  0
M  END
