 xtb: 6.7.1 (edcfbbe)
          04092505203D

 41 40  0     0  0            999 V2000
    1.4747   -1.5460   -2.7049 C   0  0  0  0  0  0  0  0  0  0  0  0
    2.5950   -0.7274   -2.0951 C   0  0  0  0  0  0  0  0  0  0  0  0
    2.0448    0.2991   -1.2270 O   0  0  0  0  0  0  0  0  0  0  0  0
    2.1575    0.2568    0.3422 P   0  0  0  0  0  0  0  0  0  0  0  0
    1.2226    1.7289    1.2296 S   0  0  0  0  0  0  0  0  0  0  0  0
    3.7375    0.2362    0.5375 O   0  0  0  0  0  0  0  0  0  0  0  0
    4.3830    0.5729    1.7788 C   0  0  0  0  0  0  0  0  0  0  0  0
    4.0787   -0.4195    2.8822 C   0  0  0  0  0  0  0  0  0  0  0  0
    1.5619   -1.6935    0.9377 S   0  0  0  0  0  0  0  0  0  0  0  0
   -0.1500   -1.3345    1.4099 C   0  0  0  0  0  0  0  0  0  0  0  0
   -1.3658   -1.6040    0.0824 S   0  0  0  0  0  0  0  0  0  0  0  0
   -1.9194    0.3832   -0.4846 P   0  0  0  0  0  0  0  0  0  0  0  0
   -0.8597    1.3544   -1.8108 S   0  0  0  0  0  0  0  0  0  0  0  0
   -2.0619    1.1568    0.8811 O   0  0  0  0  0  0  0  0  0  0  0  0
   -2.9860    0.7776    1.9346 C   0  0  0  0  0  0  0  0  0  0  0  0
   -4.2651    1.5828    1.8389 C   0  0  0  0  0  0  0  0  0  0  0  0
   -3.4323    0.1586   -0.9304 O   0  0  0  0  0  0  0  0  0  0  0  0
   -3.7835   -0.1862   -2.2802 C   0  0  0  0  0  0  0  0  0  0  0  0
   -3.3154   -1.5789   -2.6486 C   0  0  0  0  0  0  0  0  0  0  0  0
    0.9738   -2.1441   -1.9463 H   0  0  0  0  0  0  0  0  0  0  0  0
    0.7473   -0.8798   -3.1637 H   0  0  0  0  0  0  0  0  0  0  0  0
    1.8864   -2.2062   -3.4612 H   0  0  0  0  0  0  0  0  0  0  0  0
    3.1433   -0.1757   -2.8597 H   0  0  0  0  0  0  0  0  0  0  0  0
    3.2848   -1.3504   -1.5207 H   0  0  0  0  0  0  0  0  0  0  0  0
    5.4433    0.5783    1.5218 H   0  0  0  0  0  0  0  0  0  0  0  0
    4.0653    1.5795    2.0678 H   0  0  0  0  0  0  0  0  0  0  0  0
    4.2780   -1.4340    2.5464 H   0  0  0  0  0  0  0  0  0  0  0  0
    4.7015   -0.1949    3.7421 H   0  0  0  0  0  0  0  0  0  0  0  0
    3.0331   -0.3421    3.1752 H   0  0  0  0  0  0  0  0  0  0  0  0
   -0.2024   -0.2974    1.7496 H   0  0  0  0  0  0  0  0  0  0  0  0
   -0.4003   -2.0327    2.2039 H   0  0  0  0  0  0  0  0  0  0  0  0
   -3.1895   -0.2940    1.8633 H   0  0  0  0  0  0  0  0  0  0  0  0
   -2.4471    0.9984    2.8585 H   0  0  0  0  0  0  0  0  0  0  0  0
   -4.0368    2.6452    1.8540 H   0  0  0  0  0  0  0  0  0  0  0  0
   -4.7897    1.3497    0.9164 H   0  0  0  0  0  0  0  0  0  0  0  0
   -4.8996    1.3396    2.6856 H   0  0  0  0  0  0  0  0  0  0  0  0
   -4.8713   -0.1072   -2.2973 H   0  0  0  0  0  0  0  0  0  0  0  0
   -3.3438    0.5587   -2.9512 H   0  0  0  0  0  0  0  0  0  0  0  0
   -3.6773   -2.3056   -1.9258 H   0  0  0  0  0  0  0  0  0  0  0  0
   -3.6856   -1.8340   -3.6362 H   0  0  0  0  0  0  0  0  0  0  0  0
   -2.2264   -1.6095   -2.6615 H   0  0  0  0  0  0  0  0  0  0  0  0
  1  2  1  0  0  0  0
  2  3  1  0  0  0  0
  3  4  2  0  0  0  0
  4  5  2  0  0  0  0
  4  6  2  0  0  0  0
  6  7  1  0  0  0  0
  7  8  1  0  0  0  0
  4  9  1  0  0  0  0
  9 10  1  0  0  0  0
 10 11  1  0  0  0  0
 11 12  1  0  0  0  0
 12 13  2  0  0  0  0
 12 14  2  0  0  0  0
 14 15  1  0  0  0  0
 15 16  1  0  0  0  0
 12 17  2  0  0  0  0
 17 18  1  0  0  0  0
 18 19  1  0  0  0  0
  1 20  1  0  0  0  0
  1 21  1  0  0  0  0
  1 22  1  0  0  0  0
  2 23  1  0  0  0  0
  2 24  1  0  0  0  0
  7 25  1  0  0  0  0
  7 26  1  0  0  0  0
  8 27  1  0  0  0  0
  8 28  1  0  0  0  0
  8 29  1  0  0  0  0
 10 30  1  0  0  0  0
 10 31  1  0  0  0  0
 15 32  1  0  0  0  0
 15 33  1  0  0  0  0
 16 34  1  0  0  0  0
 16 35  1  0  0  0  0
 16 36  1  0  0  0  0
 18 37  1  0  0  0  0
 18 38  1  0  0  0  0
 19 39  1  0  0  0  0
 19 40  1  0  0  0  0
 19 41  1  0  0  0  0
M  END
