 xtb: 6.7.1 (edcfbbe)
          04092505213D

 41 40  0     0  0            999 V2000
    1.1731   -0.1550   -3.1893 C   0  0  0  0  0  0  0  0  0  0  0  0
    2.3034    0.4306   -2.3660 C   0  0  0  0  0  0  0  0  0  0  0  0
    2.7689   -0.5320   -1.4060 O   0  0  0  0  0  0  0  0  0  0  0  0
    2.5340   -0.4328    0.1539 P   0  0  0  0  0  0  0  0  0  0  0  0
    2.7060    1.3708    0.9166 S   0  0  0  0  0  0  0  0  0  0  0  0
    3.6568   -1.4878    0.5152 O   0  0  0  0  0  0  0  0  0  0  0  0
    3.7182   -2.2336    1.7437 C   0  0  0  0  0  0  0  0  0  0  0  0
    3.8912   -1.3422    2.9573 C   0  0  0  0  0  0  0  0  0  0  0  0
    0.7140   -1.4560    0.5739 S   0  0  0  0  0  0  0  0  0  0  0  0
   -0.0124   -0.3255    1.8150 C   0  0  0  0  0  0  0  0  0  0  0  0
   -1.8052   -0.2408    1.6708 S   0  0  0  0  0  0  0  0  0  0  0  0
   -1.9076    0.5814   -0.2939 P   0  0  0  0  0  0  0  0  0  0  0  0
   -0.5754    1.9517   -0.7142 S   0  0  0  0  0  0  0  0  0  0  0  0
   -3.4234    1.0455   -0.3783 O   0  0  0  0  0  0  0  0  0  0  0  0
   -3.8964    2.1867    0.3666 C   0  0  0  0  0  0  0  0  0  0  0  0
   -5.2581    2.5645   -0.1799 C   0  0  0  0  0  0  0  0  0  0  0  0
   -1.8539   -0.6284   -1.2985 O   0  0  0  0  0  0  0  0  0  0  0  0
   -2.7538   -1.7651   -1.2314 C   0  0  0  0  0  0  0  0  0  0  0  0
   -3.9065   -1.5894   -2.1975 C   0  0  0  0  0  0  0  0  0  0  0  0
    0.9081    0.5455   -3.9747 H   0  0  0  0  0  0  0  0  0  0  0  0
    1.4857   -1.0976   -3.6293 H   0  0  0  0  0  0  0  0  0  0  0  0
    0.2972   -0.3266   -2.5665 H   0  0  0  0  0  0  0  0  0  0  0  0
    1.9877    1.3447   -1.8504 H   0  0  0  0  0  0  0  0  0  0  0  0
    3.1705    0.6543   -2.9909 H   0  0  0  0  0  0  0  0  0  0  0  0
    2.8106   -2.8392    1.8288 H   0  0  0  0  0  0  0  0  0  0  0  0
    4.5821   -2.8854    1.6031 H   0  0  0  0  0  0  0  0  0  0  0  0
    3.0248   -0.6931    3.0772 H   0  0  0  0  0  0  0  0  0  0  0  0
    4.0028   -1.9574    3.8444 H   0  0  0  0  0  0  0  0  0  0  0  0
    4.7707   -0.7139    2.8407 H   0  0  0  0  0  0  0  0  0  0  0  0
    0.4250    0.6675    1.6713 H   0  0  0  0  0  0  0  0  0  0  0  0
    0.1888   -0.7084    2.8125 H   0  0  0  0  0  0  0  0  0  0  0  0
   -3.9517    1.9066    1.4220 H   0  0  0  0  0  0  0  0  0  0  0  0
   -3.1751    3.0022    0.2498 H   0  0  0  0  0  0  0  0  0  0  0  0
   -5.6353    3.4216    0.3680 H   0  0  0  0  0  0  0  0  0  0  0  0
   -5.1804    2.8191   -1.2332 H   0  0  0  0  0  0  0  0  0  0  0  0
   -5.9481    1.7336   -0.0662 H   0  0  0  0  0  0  0  0  0  0  0  0
   -2.1303   -2.6203   -1.4982 H   0  0  0  0  0  0  0  0  0  0  0  0
   -3.1089   -1.8747   -0.2031 H   0  0  0  0  0  0  0  0  0  0  0  0
   -4.5297   -2.4777   -2.1695 H   0  0  0  0  0  0  0  0  0  0  0  0
   -4.5012   -0.7236   -1.9195 H   0  0  0  0  0  0  0  0  0  0  0  0
   -3.5299   -1.4465   -3.2065 H   0  0  0  0  0  0  0  0  0  0  0  0
  1  2  1  0  0  0  0
  2  3  1  0  0  0  0
  3  4  2  0  0  0  0
  4  5  2  0  0  0  0
  4  6  2  0  0  0  0
  6  7  1  0  0  0  0
  7  8  1  0  0  0  0
  4  9  1  0  0  0  0
  9 10  1  0  0  0  0
 10 11  1  0  0  0  0
 11 12  1  0  0  0  0
 12 13  2  0  0  0  0
 12 14  2  0  0  0  0
 14 15  1  0  0  0  0
 15 16  1  0  0  0  0
 12 17  2  0  0  0  0
 17 18  1  0  0  0  0
 18 19  1  0  0  0  0
  1 20  1  0  0  0  0
  1 21  1  0  0  0  0
  1 22  1  0  0  0  0
  2 23  1  0  0  0  0
  2 24  1  0  0  0  0
  7 25  1  0  0  0  0
  7 26  1  0  0  0  0
  8 27  1  0  0  0  0
  8 28  1  0  0  0  0
  8 29  1  0  0  0  0
 10 30  1  0  0  0  0
 10 31  1  0  0  0  0
 15 32  1  0  0  0  0
 15 33  1  0  0  0  0
 16 34  1  0  0  0  0
 16 35  1  0  0  0  0
 16 36  1  0  0  0  0
 18 37  1  0  0  0  0
 18 38  1  0  0  0  0
 19 39  1  0  0  0  0
 19 40  1  0  0  0  0
 19 41  1  0  0  0  0
M  END
