 xtb: 6.7.1 (edcfbbe)
          04092505213D

 41 40  0     0  0            999 V2000
    3.4181   -1.0081   -2.3657 C   0  0  0  0  0  0  0  0  0  0  0  0
    1.9980   -0.4913   -2.2898 C   0  0  0  0  0  0  0  0  0  0  0  0
    1.4591   -0.6089   -0.9606 O   0  0  0  0  0  0  0  0  0  0  0  0
    2.0074    0.2602    0.2476 P   0  0  0  0  0  0  0  0  0  0  0  0
    2.7921    2.0087   -0.1448 S   0  0  0  0  0  0  0  0  0  0  0  0
    3.0189   -0.7896    0.9019 O   0  0  0  0  0  0  0  0  0  0  0  0
    4.0262   -0.3949    1.8460 C   0  0  0  0  0  0  0  0  0  0  0  0
    3.4295    0.0132    3.1783 C   0  0  0  0  0  0  0  0  0  0  0  0
    0.3321    0.2267    1.5304 S   0  0  0  0  0  0  0  0  0  0  0  0
   -0.2015   -1.4896    1.3148 C   0  0  0  0  0  0  0  0  0  0  0  0
   -1.1135   -1.8320   -0.2331 S   0  0  0  0  0  0  0  0  0  0  0  0
   -1.9255    0.0562   -0.7276 P   0  0  0  0  0  0  0  0  0  0  0  0
   -0.8376    1.5430   -1.4100 S   0  0  0  0  0  0  0  0  0  0  0  0
   -2.8149    0.4109    0.5471 O   0  0  0  0  0  0  0  0  0  0  0  0
   -2.8088    1.6531    1.2754 C   0  0  0  0  0  0  0  0  0  0  0  0
   -2.7674    1.3591    2.7615 C   0  0  0  0  0  0  0  0  0  0  0  0
   -2.9308   -0.3451   -1.8802 O   0  0  0  0  0  0  0  0  0  0  0  0
   -3.7707   -1.5237   -1.9508 C   0  0  0  0  0  0  0  0  0  0  0  0
   -4.7400   -1.6246   -0.7928 C   0  0  0  0  0  0  0  0  0  0  0  0
    3.7520   -0.9864   -3.3982 H   0  0  0  0  0  0  0  0  0  0  0  0
    4.0721   -0.3736   -1.7683 H   0  0  0  0  0  0  0  0  0  0  0  0
    3.4671   -2.0258   -1.9873 H   0  0  0  0  0  0  0  0  0  0  0  0
    1.3127   -1.0821   -2.9007 H   0  0  0  0  0  0  0  0  0  0  0  0
    1.9407    0.5596   -2.5933 H   0  0  0  0  0  0  0  0  0  0  0  0
    4.6608   -1.2772    1.9392 H   0  0  0  0  0  0  0  0  0  0  0  0
    4.5970    0.4333    1.4140 H   0  0  0  0  0  0  0  0  0  0  0  0
    2.8047   -0.7813    3.5777 H   0  0  0  0  0  0  0  0  0  0  0  0
    4.2307    0.2278    3.8781 H   0  0  0  0  0  0  0  0  0  0  0  0
    2.8229    0.9099    3.0520 H   0  0  0  0  0  0  0  0  0  0  0  0
   -0.8595   -1.7037    2.1539 H   0  0  0  0  0  0  0  0  0  0  0  0
    0.6657   -2.1470    1.3110 H   0  0  0  0  0  0  0  0  0  0  0  0
   -1.9496    2.2529    0.9565 H   0  0  0  0  0  0  0  0  0  0  0  0
   -3.7265    2.1784    1.0011 H   0  0  0  0  0  0  0  0  0  0  0  0
   -1.8235    0.8897    3.0275 H   0  0  0  0  0  0  0  0  0  0  0  0
   -2.8629    2.2929    3.3055 H   0  0  0  0  0  0  0  0  0  0  0  0
   -3.5876    0.7004    3.0306 H   0  0  0  0  0  0  0  0  0  0  0  0
   -4.2911   -1.3975   -2.9018 H   0  0  0  0  0  0  0  0  0  0  0  0
   -3.1236   -2.4029   -1.9985 H   0  0  0  0  0  0  0  0  0  0  0  0
   -5.3945   -2.4755   -0.9549 H   0  0  0  0  0  0  0  0  0  0  0  0
   -4.1993   -1.7635    0.1401 H   0  0  0  0  0  0  0  0  0  0  0  0
   -5.3382   -0.7200   -0.7227 H   0  0  0  0  0  0  0  0  0  0  0  0
  1  2  1  0  0  0  0
  2  3  1  0  0  0  0
  3  4  2  0  0  0  0
  4  5  2  0  0  0  0
  4  6  2  0  0  0  0
  6  7  1  0  0  0  0
  7  8  1  0  0  0  0
  4  9  1  0  0  0  0
  9 10  1  0  0  0  0
 10 11  1  0  0  0  0
 11 12  1  0  0  0  0
 12 13  2  0  0  0  0
 12 14  2  0  0  0  0
 14 15  1  0  0  0  0
 15 16  1  0  0  0  0
 12 17  2  0  0  0  0
 17 18  1  0  0  0  0
 18 19  1  0  0  0  0
  1 20  1  0  0  0  0
  1 21  1  0  0  0  0
  1 22  1  0  0  0  0
  2 23  1  0  0  0  0
  2 24  1  0  0  0  0
  7 25  1  0  0  0  0
  7 26  1  0  0  0  0
  8 27  1  0  0  0  0
  8 28  1  0  0  0  0
  8 29  1  0  0  0  0
 10 30  1  0  0  0  0
 10 31  1  0  0  0  0
 15 32  1  0  0  0  0
 15 33  1  0  0  0  0
 16 34  1  0  0  0  0
 16 35  1  0  0  0  0
 16 36  1  0  0  0  0
 18 37  1  0  0  0  0
 18 38  1  0  0  0  0
 19 39  1  0  0  0  0
 19 40  1  0  0  0  0
 19 41  1  0  0  0  0
M  END
