 xtb: 6.7.1 (edcfbbe)
          04092507313D

 38 37  0     0  0            999 V2000
    5.0149    0.1790   -0.2797 C   0  0  0  0  0  0  0  0  0  0  0  0
    4.6839   -1.0109   -1.1657 C   0  0  0  0  0  0  0  0  0  0  0  0
    3.3613   -1.4990   -0.8611 O   0  0  0  0  0  0  0  0  0  0  0  0
    2.3898   -1.3041   -1.7304 C   0  0  0  0  0  0  0  0  0  0  0  0
    2.5184   -0.7857   -2.8159 O   0  0  0  0  0  0  0  0  0  0  0  0
    1.0659   -1.8309   -1.2001 C   0  0  0  0  0  0  0  0  0  0  0  0
    0.1365   -0.6371   -0.9545 C   0  0  0  0  0  0  0  0  0  0  0  0
   -0.0207   -0.0896   -1.8879 H   0  0  0  0  0  0  0  0  0  0  0  0
    0.8202    0.2854    0.0369 C   0  0  0  0  0  0  0  0  0  0  0  0
    1.7342    1.0058   -0.2928 O   0  0  0  0  0  0  0  0  0  0  0  0
    0.3731    0.1373    1.2654 O   0  0  0  0  0  0  0  0  0  0  0  0
    1.0424    0.8520    2.3237 C   0  0  0  0  0  0  0  0  0  0  0  0
    2.1359   -0.0152    2.9238 C   0  0  0  0  0  0  0  0  0  0  0  0
   -1.4645   -1.2461   -0.3362 S   0  0  0  0  0  0  0  0  0  0  0  0
   -2.2716    0.6000    0.3349 P   0  0  0  0  0  0  0  0  0  0  0  0
   -1.4891    2.2229   -0.4402 S   0  0  0  0  0  0  0  0  0  0  0  0
   -3.8332    0.4111    0.0420 O   0  0  0  0  0  0  0  0  0  0  0  0
   -4.3454    0.3882   -1.2949 C   0  0  0  0  0  0  0  0  0  0  0  0
   -2.2805    0.6073    1.9122 O   0  0  0  0  0  0  0  0  0  0  0  0
   -2.8484   -0.4795    2.6754 C   0  0  0  0  0  0  0  0  0  0  0  0
    5.0591   -0.1247    0.7624 H   0  0  0  0  0  0  0  0  0  0  0  0
    5.9752    0.5900   -0.5725 H   0  0  0  0  0  0  0  0  0  0  0  0
    4.2495    0.9445   -0.3928 H   0  0  0  0  0  0  0  0  0  0  0  0
    5.3557   -1.8497   -0.9760 H   0  0  0  0  0  0  0  0  0  0  0  0
    4.7119   -0.7332   -2.2228 H   0  0  0  0  0  0  0  0  0  0  0  0
    1.2330   -2.3809   -0.2744 H   0  0  0  0  0  0  0  0  0  0  0  0
    0.6156   -2.4829   -1.9490 H   0  0  0  0  0  0  0  0  0  0  0  0
    1.4486    1.7784    1.9079 H   0  0  0  0  0  0  0  0  0  0  0  0
    0.2575    1.0796    3.0455 H   0  0  0  0  0  0  0  0  0  0  0  0
    2.6248    0.5308    3.7235 H   0  0  0  0  0  0  0  0  0  0  0  0
    1.7126   -0.9335    3.3202 H   0  0  0  0  0  0  0  0  0  0  0  0
    2.8711   -0.2628    2.1613 H   0  0  0  0  0  0  0  0  0  0  0  0
   -3.9583    1.2372   -1.8606 H   0  0  0  0  0  0  0  0  0  0  0  0
   -5.4254    0.4598   -1.1955 H   0  0  0  0  0  0  0  0  0  0  0  0
   -4.0648   -0.5448   -1.7833 H   0  0  0  0  0  0  0  0  0  0  0  0
   -2.6270   -0.2441    3.7130 H   0  0  0  0  0  0  0  0  0  0  0  0
   -2.3831   -1.4202    2.3818 H   0  0  0  0  0  0  0  0  0  0  0  0
   -3.9226   -0.5248    2.5093 H   0  0  0  0  0  0  0  0  0  0  0  0
  1  2  1  0  0  0  0
  2  3  1  0  0  0  0
  3  4  1  0  0  0  0
  4  5  2  0  0  0  0
  4  6  1  0  0  0  0
  6  7  1  0  0  0  0
  7  8  1  0  0  0  0
  7  9  1  0  0  0  0
  9 10  2  0  0  0  0
  9 11  1  0  0  0  0
 11 12  1  0  0  0  0
 12 13  1  0  0  0  0
  7 14  1  0  0  0  0
 14 15  1  0  0  0  0
 15 16  2  0  0  0  0
 15 17  1  0  0  0  0
 17 18  1  0  0  0  0
 15 19  2  0  0  0  0
 19 20  1  0  0  0  0
  1 21  1  0  0  0  0
  1 22  1  0  0  0  0
  1 23  1  0  0  0  0
  2 24  1  0  0  0  0
  2 25  1  0  0  0  0
  6 26  1  0  0  0  0
  6 27  1  0  0  0  0
 12 28  1  0  0  0  0
 12 29  1  0  0  0  0
 13 30  1  0  0  0  0
 13 31  1  0  0  0  0
 13 32  1  0  0  0  0
 18 33  1  0  0  0  0
 18 34  1  0  0  0  0
 18 35  1  0  0  0  0
 20 36  1  0  0  0  0
 20 37  1  0  0  0  0
 20 38  1  0  0  0  0
M  END
