 xtb: 6.7.1 (edcfbbe)
          04092507313D

 38 37  0     0  0            999 V2000
    2.1082   -3.4237   -2.4055 C   0  0  0  0  0  0  0  0  0  0  0  0
    3.2757   -2.8522   -1.6169 C   0  0  0  0  0  0  0  0  0  0  0  0
    2.9325   -1.5684   -1.0634 O   0  0  0  0  0  0  0  0  0  0  0  0
    2.3011   -1.5312    0.0922 C   0  0  0  0  0  0  0  0  0  0  0  0
    2.0545   -2.4956    0.7797 O   0  0  0  0  0  0  0  0  0  0  0  0
    1.9178   -0.1090    0.4662 C   0  0  0  0  0  0  0  0  0  0  0  0
    1.1054    0.5247   -0.6662 C   0  0  0  0  0  0  0  0  0  0  0  0
    1.7442    0.6988   -1.5345 H   0  0  0  0  0  0  0  0  0  0  0  0
    0.4695    1.8200   -0.2089 C   0  0  0  0  0  0  0  0  0  0  0  0
   -0.7389    1.9504   -0.1189 O   0  0  0  0  0  0  0  0  0  0  0  0
    1.3390    2.7347    0.0884 O   0  0  0  0  0  0  0  0  0  0  0  0
    0.8506    3.9991    0.5978 C   0  0  0  0  0  0  0  0  0  0  0  0
    2.0528    4.8568    0.9347 C   0  0  0  0  0  0  0  0  0  0  0  0
   -0.2351   -0.5676   -1.2601 S   0  0  0  0  0  0  0  0  0  0  0  0
   -1.6856   -0.3031    0.2501 P   0  0  0  0  0  0  0  0  0  0  0  0
   -1.3164    0.1394    2.1365 S   0  0  0  0  0  0  0  0  0  0  0  0
   -3.0034    0.3702   -0.3540 O   0  0  0  0  0  0  0  0  0  0  0  0
   -3.4894    1.6811   -0.0656 C   0  0  0  0  0  0  0  0  0  0  0  0
   -2.1230   -1.8432    0.0943 O   0  0  0  0  0  0  0  0  0  0  0  0
   -3.1727   -2.4046    0.8849 C   0  0  0  0  0  0  0  0  0  0  0  0
    2.4049   -4.3624   -2.8612 H   0  0  0  0  0  0  0  0  0  0  0  0
    1.2625   -3.6010   -1.7443 H   0  0  0  0  0  0  0  0  0  0  0  0
    1.7997   -2.7255   -3.1785 H   0  0  0  0  0  0  0  0  0  0  0  0
    4.1320   -2.6514   -2.2606 H   0  0  0  0  0  0  0  0  0  0  0  0
    3.5580   -3.5226   -0.8001 H   0  0  0  0  0  0  0  0  0  0  0  0
    2.8212    0.4800    0.6299 H   0  0  0  0  0  0  0  0  0  0  0  0
    1.3384   -0.1500    1.3911 H   0  0  0  0  0  0  0  0  0  0  0  0
    0.2253    4.4576   -0.1732 H   0  0  0  0  0  0  0  0  0  0  0  0
    0.2303    3.7952    1.4755 H   0  0  0  0  0  0  0  0  0  0  0  0
    2.6515    4.3784    1.7035 H   0  0  0  0  0  0  0  0  0  0  0  0
    2.6655    5.0031    0.0506 H   0  0  0  0  0  0  0  0  0  0  0  0
    1.7118    5.8205    1.2977 H   0  0  0  0  0  0  0  0  0  0  0  0
   -3.1736    1.9870    0.9326 H   0  0  0  0  0  0  0  0  0  0  0  0
   -4.5737    1.6143   -0.1209 H   0  0  0  0  0  0  0  0  0  0  0  0
   -3.1043    2.3816   -0.8033 H   0  0  0  0  0  0  0  0  0  0  0  0
   -3.0869   -3.4819    0.7669 H   0  0  0  0  0  0  0  0  0  0  0  0
   -4.1398   -2.0534    0.5260 H   0  0  0  0  0  0  0  0  0  0  0  0
   -3.0425   -2.1269    1.9334 H   0  0  0  0  0  0  0  0  0  0  0  0
  1  2  1  0  0  0  0
  2  3  1  0  0  0  0
  3  4  1  0  0  0  0
  4  5  2  0  0  0  0
  4  6  1  0  0  0  0
  6  7  1  0  0  0  0
  7  8  1  0  0  0  0
  7  9  1  0  0  0  0
  9 10  2  0  0  0  0
  9 11  4  0  0  0  0
 11 12  1  0  0  0  0
 12 13  1  0  0  0  0
  7 14  1  0  0  0  0
 14 15  1  0  0  0  0
 15 16  2  0  0  0  0
 15 17  2  0  0  0  0
 17 18  1  0  0  0  0
 15 19  1  0  0  0  0
 19 20  1  0  0  0  0
  1 21  1  0  0  0  0
  1 22  1  0  0  0  0
  1 23  1  0  0  0  0
  2 24  1  0  0  0  0
  2 25  1  0  0  0  0
  6 26  1  0  0  0  0
  6 27  1  0  0  0  0
 12 28  1  0  0  0  0
 12 29  1  0  0  0  0
 13 30  1  0  0  0  0
 13 31  1  0  0  0  0
 13 32  1  0  0  0  0
 18 33  1  0  0  0  0
 18 34  1  0  0  0  0
 18 35  1  0  0  0  0
 20 36  1  0  0  0  0
 20 37  1  0  0  0  0
 20 38  1  0  0  0  0
M  END
