 xtb: 6.7.1 (edcfbbe)
          04092505213D

 41 40  0     0  0            999 V2000
    1.2376    0.7513    3.1335 C   0  0  0  0  0  0  0  0  0  0  0  0
    2.4277   -0.1589    2.9057 C   0  0  0  0  0  0  0  0  0  0  0  0
    2.9793    0.0073    1.5890 O   0  0  0  0  0  0  0  0  0  0  0  0
    2.2378   -0.5352    0.2919 P   0  0  0  0  0  0  0  0  0  0  0  0
    1.4123   -2.3047    0.5181 S   0  0  0  0  0  0  0  0  0  0  0  0
    3.3632   -0.4587   -0.8222 O   0  0  0  0  0  0  0  0  0  0  0  0
    4.2475   -1.5649   -1.0950 C   0  0  0  0  0  0  0  0  0  0  0  0
    5.2325   -1.7875    0.0332 C   0  0  0  0  0  0  0  0  0  0  0  0
    1.0889    1.1242   -0.3253 S   0  0  0  0  0  0  0  0  0  0  0  0
    0.4570    0.4724   -1.8882 C   0  0  0  0  0  0  0  0  0  0  0  0
   -0.9641   -0.6681   -1.7361 S   0  0  0  0  0  0  0  0  0  0  0  0
   -2.3107    0.4803   -0.5861 P   0  0  0  0  0  0  0  0  0  0  0  0
   -4.2136    0.0768   -0.8324 S   0  0  0  0  0  0  0  0  0  0  0  0
   -1.7999    1.9247   -0.9847 O   0  0  0  0  0  0  0  0  0  0  0  0
   -2.3270    3.1218   -0.3644 C   0  0  0  0  0  0  0  0  0  0  0  0
   -3.4637    3.6976   -1.1847 C   0  0  0  0  0  0  0  0  0  0  0  0
   -1.8432    0.3757    0.9425 O   0  0  0  0  0  0  0  0  0  0  0  0
   -2.4859   -0.5212    1.8622 C   0  0  0  0  0  0  0  0  0  0  0  0
   -2.1826   -1.9709    1.5445 C   0  0  0  0  0  0  0  0  0  0  0  0
    1.5111    1.7849    2.9377 H   0  0  0  0  0  0  0  0  0  0  0  0
    0.4237    0.4762    2.4634 H   0  0  0  0  0  0  0  0  0  0  0  0
    0.9006    0.6542    4.1607 H   0  0  0  0  0  0  0  0  0  0  0  0
    2.1423   -1.2088    3.0328 H   0  0  0  0  0  0  0  0  0  0  0  0
    3.2547    0.0850    3.5738 H   0  0  0  0  0  0  0  0  0  0  0  0
    3.6422   -2.4622   -1.2616 H   0  0  0  0  0  0  0  0  0  0  0  0
    4.7496   -1.2777   -2.0199 H   0  0  0  0  0  0  0  0  0  0  0  0
    5.9480   -2.5498   -0.2587 H   0  0  0  0  0  0  0  0  0  0  0  0
    5.7579   -0.8636    0.2598 H   0  0  0  0  0  0  0  0  0  0  0  0
    4.7046   -2.1207    0.9256 H   0  0  0  0  0  0  0  0  0  0  0  0
    1.2314   -0.1027   -2.3910 H   0  0  0  0  0  0  0  0  0  0  0  0
    0.1569    1.3304   -2.4828 H   0  0  0  0  0  0  0  0  0  0  0  0
   -2.6510    2.8866    0.6521 H   0  0  0  0  0  0  0  0  0  0  0  0
   -1.4730    3.8007   -0.3270 H   0  0  0  0  0  0  0  0  0  0  0  0
   -3.1297    3.9000   -2.1985 H   0  0  0  0  0  0  0  0  0  0  0  0
   -4.2937    2.9952   -1.2251 H   0  0  0  0  0  0  0  0  0  0  0  0
   -3.8026    4.6214   -0.7267 H   0  0  0  0  0  0  0  0  0  0  0  0
   -2.0971   -0.2293    2.8388 H   0  0  0  0  0  0  0  0  0  0  0  0
   -3.5656   -0.3437    1.8200 H   0  0  0  0  0  0  0  0  0  0  0  0
   -1.1103   -2.1506    1.5245 H   0  0  0  0  0  0  0  0  0  0  0  0
   -2.6373   -2.6101    2.2939 H   0  0  0  0  0  0  0  0  0  0  0  0
   -2.5914   -2.2265    0.5664 H   0  0  0  0  0  0  0  0  0  0  0  0
  1  2  1  0  0  0  0
  2  3  1  0  0  0  0
  3  4  2  0  0  0  0
  4  5  2  0  0  0  0
  4  6  2  0  0  0  0
  6  7  1  0  0  0  0
  7  8  1  0  0  0  0
  4  9  1  0  0  0  0
  9 10  1  0  0  0  0
 10 11  1  0  0  0  0
 11 12  1  0  0  0  0
 12 13  2  0  0  0  0
 12 14  2  0  0  0  0
 14 15  1  0  0  0  0
 15 16  1  0  0  0  0
 12 17  1  0  0  0  0
 17 18  1  0  0  0  0
 18 19  1  0  0  0  0
  1 20  1  0  0  0  0
  1 21  1  0  0  0  0
  1 22  1  0  0  0  0
  2 23  1  0  0  0  0
  2 24  1  0  0  0  0
  7 25  1  0  0  0  0
  7 26  1  0  0  0  0
  8 27  1  0  0  0  0
  8 28  1  0  0  0  0
  8 29  1  0  0  0  0
 10 30  1  0  0  0  0
 10 31  1  0  0  0  0
 15 32  1  0  0  0  0
 15 33  1  0  0  0  0
 16 34  1  0  0  0  0
 16 35  1  0  0  0  0
 16 36  1  0  0  0  0
 18 37  1  0  0  0  0
 18 38  1  0  0  0  0
 19 39  1  0  0  0  0
 19 40  1  0  0  0  0
 19 41  1  0  0  0  0
M  END
