 xtb: 6.7.1 (edcfbbe)
          04092505203D

 41 40  0     0  0            999 V2000
    1.0108   -0.1073    3.4980 C   0  0  0  0  0  0  0  0  0  0  0  0
    1.8191    0.8728    2.6710 C   0  0  0  0  0  0  0  0  0  0  0  0
    1.4794    0.7651    1.2665 O   0  0  0  0  0  0  0  0  0  0  0  0
    2.3262   -0.1319    0.2715 P   0  0  0  0  0  0  0  0  0  0  0  0
    2.8492   -1.9213    0.8903 S   0  0  0  0  0  0  0  0  0  0  0  0
    3.5559    0.8308   -0.0324 O   0  0  0  0  0  0  0  0  0  0  0  0
    4.7707    0.3568   -0.6392 C   0  0  0  0  0  0  0  0  0  0  0  0
    4.5645   -0.0365   -2.0876 C   0  0  0  0  0  0  0  0  0  0  0  0
    1.0897   -0.0228   -1.4341 S   0  0  0  0  0  0  0  0  0  0  0  0
    0.0622   -1.4587   -1.0117 C   0  0  0  0  0  0  0  0  0  0  0  0
   -1.0286   -1.1560    0.3923 S   0  0  0  0  0  0  0  0  0  0  0  0
   -2.2801    0.2678   -0.5977 P   0  0  0  0  0  0  0  0  0  0  0  0
   -2.5771   -0.0455   -2.5045 S   0  0  0  0  0  0  0  0  0  0  0  0
   -1.6247    1.6872   -0.3970 O   0  0  0  0  0  0  0  0  0  0  0  0
   -1.3628    2.2805    0.8962 C   0  0  0  0  0  0  0  0  0  0  0  0
   -2.4348    3.2931    1.2417 C   0  0  0  0  0  0  0  0  0  0  0  0
   -3.5379    0.3488    0.3699 O   0  0  0  0  0  0  0  0  0  0  0  0
   -4.2917   -0.7815    0.8494 C   0  0  0  0  0  0  0  0  0  0  0  0
   -4.8013   -1.6654   -0.2691 C   0  0  0  0  0  0  0  0  0  0  0  0
    1.2590   -1.1296    3.2213 H   0  0  0  0  0  0  0  0  0  0  0  0
    1.2378    0.0408    4.5488 H   0  0  0  0  0  0  0  0  0  0  0  0
   -0.0522    0.0445    3.3338 H   0  0  0  0  0  0  0  0  0  0  0  0
    2.8913    0.6991    2.7951 H   0  0  0  0  0  0  0  0  0  0  0  0
    1.5837    1.9062    2.9308 H   0  0  0  0  0  0  0  0  0  0  0  0
    5.4584    1.1979   -0.5425 H   0  0  0  0  0  0  0  0  0  0  0  0
    5.1376   -0.4957   -0.0583 H   0  0  0  0  0  0  0  0  0  0  0  0
    5.5227   -0.2796   -2.5353 H   0  0  0  0  0  0  0  0  0  0  0  0
    3.9150   -0.9091   -2.1475 H   0  0  0  0  0  0  0  0  0  0  0  0
    4.1035    0.7790   -2.6395 H   0  0  0  0  0  0  0  0  0  0  0  0
    0.7017   -2.2987   -0.7401 H   0  0  0  0  0  0  0  0  0  0  0  0
   -0.5379   -1.6770   -1.8955 H   0  0  0  0  0  0  0  0  0  0  0  0
   -1.3075    1.4872    1.6466 H   0  0  0  0  0  0  0  0  0  0  0  0
   -0.3828    2.7505    0.7910 H   0  0  0  0  0  0  0  0  0  0  0  0
   -3.4014    2.8027    1.3222 H   0  0  0  0  0  0  0  0  0  0  0  0
   -2.1891    3.7645    2.1882 H   0  0  0  0  0  0  0  0  0  0  0  0
   -2.4919    4.0514    0.4657 H   0  0  0  0  0  0  0  0  0  0  0  0
   -3.6549   -1.3510    1.5320 H   0  0  0  0  0  0  0  0  0  0  0  0
   -5.1146   -0.3246    1.4019 H   0  0  0  0  0  0  0  0  0  0  0  0
   -5.4361   -2.4417    0.1458 H   0  0  0  0  0  0  0  0  0  0  0  0
   -5.3699   -1.0794   -0.9872 H   0  0  0  0  0  0  0  0  0  0  0  0
   -3.9668   -2.1305   -0.7917 H   0  0  0  0  0  0  0  0  0  0  0  0
  1  2  1  0  0  0  0
  2  3  1  0  0  0  0
  3  4  2  0  0  0  0
  4  5  2  0  0  0  0
  4  6  2  0  0  0  0
  6  7  1  0  0  0  0
  7  8  1  0  0  0  0
  4  9  1  0  0  0  0
  9 10  1  0  0  0  0
 10 11  1  0  0  0  0
 11 12  1  0  0  0  0
 12 13  2  0  0  0  0
 12 14  2  0  0  0  0
 14 15  1  0  0  0  0
 15 16  1  0  0  0  0
 12 17  2  0  0  0  0
 17 18  1  0  0  0  0
 18 19  1  0  0  0  0
  1 20  1  0  0  0  0
  1 21  1  0  0  0  0
  1 22  1  0  0  0  0
  2 23  1  0  0  0  0
  2 24  1  0  0  0  0
  7 25  1  0  0  0  0
  7 26  1  0  0  0  0
  8 27  1  0  0  0  0
  8 28  1  0  0  0  0
  8 29  1  0  0  0  0
 10 30  1  0  0  0  0
 10 31  1  0  0  0  0
 15 32  1  0  0  0  0
 15 33  1  0  0  0  0
 16 34  1  0  0  0  0
 16 35  1  0  0  0  0
 16 36  1  0  0  0  0
 18 37  1  0  0  0  0
 18 38  1  0  0  0  0
 19 39  1  0  0  0  0
 19 40  1  0  0  0  0
 19 41  1  0  0  0  0
M  END
