 xtb: 6.7.1 (edcfbbe)
          04092505203D

 41 40  0     0  0            999 V2000
    1.5559    2.5240    1.2257 C   0  0  0  0  0  0  0  0  0  0  0  0
    2.8319    1.8006    1.6059 C   0  0  0  0  0  0  0  0  0  0  0  0
    3.2347    0.8603    0.5962 O   0  0  0  0  0  0  0  0  0  0  0  0
    2.4887   -0.5273    0.3839 P   0  0  0  0  0  0  0  0  0  0  0  0
    1.9268   -1.4264    2.0379 S   0  0  0  0  0  0  0  0  0  0  0  0
    3.5197   -1.3363   -0.5058 O   0  0  0  0  0  0  0  0  0  0  0  0
    4.5615   -2.1534    0.0679 C   0  0  0  0  0  0  0  0  0  0  0  0
    5.6274   -1.3186    0.7462 C   0  0  0  0  0  0  0  0  0  0  0  0
    1.0514   -0.1395   -1.1181 S   0  0  0  0  0  0  0  0  0  0  0  0
   -0.1180   -1.4632   -0.6880 C   0  0  0  0  0  0  0  0  0  0  0  0
   -1.2587   -1.0018    0.6451 S   0  0  0  0  0  0  0  0  0  0  0  0
   -2.3811    0.3783   -0.4931 P   0  0  0  0  0  0  0  0  0  0  0  0
   -2.7237   -0.0857   -2.3712 S   0  0  0  0  0  0  0  0  0  0  0  0
   -1.5280    1.6884   -0.2407 O   0  0  0  0  0  0  0  0  0  0  0  0
   -1.5810    2.8222   -1.1310 C   0  0  0  0  0  0  0  0  0  0  0  0
   -2.9328    3.5033   -1.0954 C   0  0  0  0  0  0  0  0  0  0  0  0
   -3.6753    0.6628    0.3827 O   0  0  0  0  0  0  0  0  0  0  0  0
   -4.8837   -0.1054    0.2499 C   0  0  0  0  0  0  0  0  0  0  0  0
   -4.7110   -1.5302    0.7353 C   0  0  0  0  0  0  0  0  0  0  0  0
    0.7162    1.8294    1.2094 H   0  0  0  0  0  0  0  0  0  0  0  0
    1.3515    3.3021    1.9543 H   0  0  0  0  0  0  0  0  0  0  0  0
    1.6608    2.9681    0.2387 H   0  0  0  0  0  0  0  0  0  0  0  0
    2.7048    1.2630    2.5516 H   0  0  0  0  0  0  0  0  0  0  0  0
    3.6753    2.4887    1.6789 H   0  0  0  0  0  0  0  0  0  0  0  0
    4.1038   -2.8474    0.7803 H   0  0  0  0  0  0  0  0  0  0  0  0
    4.9595   -2.7034   -0.7858 H   0  0  0  0  0  0  0  0  0  0  0  0
    6.0003   -0.5600    0.0631 H   0  0  0  0  0  0  0  0  0  0  0  0
    5.2111   -0.8281    1.6249 H   0  0  0  0  0  0  0  0  0  0  0  0
    6.4452   -1.9620    1.0553 H   0  0  0  0  0  0  0  0  0  0  0  0
    0.4248   -2.3410   -0.3459 H   0  0  0  0  0  0  0  0  0  0  0  0
   -0.6914   -1.6751   -1.5905 H   0  0  0  0  0  0  0  0  0  0  0  0
   -0.7880    3.4765   -0.7676 H   0  0  0  0  0  0  0  0  0  0  0  0
   -1.3439    2.4771   -2.1424 H   0  0  0  0  0  0  0  0  0  0  0  0
   -3.1971    3.7588   -0.0727 H   0  0  0  0  0  0  0  0  0  0  0  0
   -2.8979    4.4052   -1.6984 H   0  0  0  0  0  0  0  0  0  0  0  0
   -3.6936    2.8367   -1.5000 H   0  0  0  0  0  0  0  0  0  0  0  0
   -5.6090    0.4412    0.8542 H   0  0  0  0  0  0  0  0  0  0  0  0
   -5.1877   -0.0926   -0.8018 H   0  0  0  0  0  0  0  0  0  0  0  0
   -4.2995   -1.5392    1.7417 H   0  0  0  0  0  0  0  0  0  0  0  0
   -5.6740   -2.0307    0.7338 H   0  0  0  0  0  0  0  0  0  0  0  0
   -4.0314   -2.0690    0.0762 H   0  0  0  0  0  0  0  0  0  0  0  0
  1  2  1  0  0  0  0
  2  3  1  0  0  0  0
  3  4  2  0  0  0  0
  4  5  2  0  0  0  0
  4  6  2  0  0  0  0
  6  7  1  0  0  0  0
  7  8  1  0  0  0  0
  4  9  1  0  0  0  0
  9 10  1  0  0  0  0
 10 11  1  0  0  0  0
 11 12  1  0  0  0  0
 12 13  2  0  0  0  0
 12 14  2  0  0  0  0
 14 15  1  0  0  0  0
 15 16  1  0  0  0  0
 12 17  2  0  0  0  0
 17 18  1  0  0  0  0
 18 19  1  0  0  0  0
  1 20  1  0  0  0  0
  1 21  1  0  0  0  0
  1 22  1  0  0  0  0
  2 23  1  0  0  0  0
  2 24  1  0  0  0  0
  7 25  1  0  0  0  0
  7 26  1  0  0  0  0
  8 27  1  0  0  0  0
  8 28  1  0  0  0  0
  8 29  1  0  0  0  0
 10 30  1  0  0  0  0
 10 31  1  0  0  0  0
 15 32  1  0  0  0  0
 15 33  1  0  0  0  0
 16 34  1  0  0  0  0
 16 35  1  0  0  0  0
 16 36  1  0  0  0  0
 18 37  1  0  0  0  0
 18 38  1  0  0  0  0
 19 39  1  0  0  0  0
 19 40  1  0  0  0  0
 19 41  1  0  0  0  0
M  END
