 xtb: 6.7.1 (edcfbbe)
          04092505213D

 41 40  0     0  0            999 V2000
    5.0106    1.2594    0.7422 C   0  0  0  0  0  0  0  0  0  0  0  0
    3.6935    1.5503    0.0520 C   0  0  0  0  0  0  0  0  0  0  0  0
    2.5901    0.9909    0.8081 O   0  0  0  0  0  0  0  0  0  0  0  0
    1.9025   -0.3891    0.4883 P   0  0  0  0  0  0  0  0  0  0  0  0
    0.6260   -0.7928    1.9163 S   0  0  0  0  0  0  0  0  0  0  0  0
    3.1317   -1.3921    0.3878 O   0  0  0  0  0  0  0  0  0  0  0  0
    3.1075   -2.6796   -0.2558 C   0  0  0  0  0  0  0  0  0  0  0  0
    1.9188   -3.5260    0.1481 C   0  0  0  0  0  0  0  0  0  0  0  0
    1.3377   -0.2971   -1.5737 S   0  0  0  0  0  0  0  0  0  0  0  0
    0.3047    1.2108   -1.6397 C   0  0  0  0  0  0  0  0  0  0  0  0
   -0.5730    1.6330   -0.1177 S   0  0  0  0  0  0  0  0  0  0  0  0
   -2.1545    0.2037   -0.3236 P   0  0  0  0  0  0  0  0  0  0  0  0
   -1.7027   -1.6413   -0.7793 S   0  0  0  0  0  0  0  0  0  0  0  0
   -3.0618    0.7847   -1.4733 O   0  0  0  0  0  0  0  0  0  0  0  0
   -3.6887    2.0934   -1.4552 C   0  0  0  0  0  0  0  0  0  0  0  0
   -3.0179    3.0137   -2.4561 C   0  0  0  0  0  0  0  0  0  0  0  0
   -3.0470    0.4990    0.9545 O   0  0  0  0  0  0  0  0  0  0  0  0
   -2.7473    0.2104    2.3316 C   0  0  0  0  0  0  0  0  0  0  0  0
   -2.9665   -1.2523    2.6584 C   0  0  0  0  0  0  0  0  0  0  0  0
    5.1874    0.1877    0.7791 H   0  0  0  0  0  0  0  0  0  0  0  0
    5.8142    1.7382    0.1915 H   0  0  0  0  0  0  0  0  0  0  0  0
    4.9909    1.6440    1.7582 H   0  0  0  0  0  0  0  0  0  0  0  0
    3.6800    1.1371   -0.9605 H   0  0  0  0  0  0  0  0  0  0  0  0
    3.4886    2.6221    0.0237 H   0  0  0  0  0  0  0  0  0  0  0  0
    3.1132   -2.5173   -1.3374 H   0  0  0  0  0  0  0  0  0  0  0  0
    4.0464   -3.1408    0.0563 H   0  0  0  0  0  0  0  0  0  0  0  0
    2.0017   -4.5066   -0.3093 H   0  0  0  0  0  0  0  0  0  0  0  0
    1.8779   -3.6346    1.2298 H   0  0  0  0  0  0  0  0  0  0  0  0
    0.9882   -3.0644   -0.1856 H   0  0  0  0  0  0  0  0  0  0  0  0
   -0.4132    1.0359   -2.4409 H   0  0  0  0  0  0  0  0  0  0  0  0
    0.9470    2.0588   -1.8664 H   0  0  0  0  0  0  0  0  0  0  0  0
   -4.7283    1.9032   -1.7265 H   0  0  0  0  0  0  0  0  0  0  0  0
   -3.6429    2.5001   -0.4436 H   0  0  0  0  0  0  0  0  0  0  0  0
   -2.9872    2.5402   -3.4335 H   0  0  0  0  0  0  0  0  0  0  0  0
   -3.5896    3.9337   -2.5247 H   0  0  0  0  0  0  0  0  0  0  0  0
   -2.0047    3.2503   -2.1409 H   0  0  0  0  0  0  0  0  0  0  0  0
   -1.7171    0.5020    2.5508 H   0  0  0  0  0  0  0  0  0  0  0  0
   -3.4391    0.8497    2.8839 H   0  0  0  0  0  0  0  0  0  0  0  0
   -2.8411   -1.4000    3.7259 H   0  0  0  0  0  0  0  0  0  0  0  0
   -3.9653   -1.5605    2.3608 H   0  0  0  0  0  0  0  0  0  0  0  0
   -2.2352   -1.8656    2.1360 H   0  0  0  0  0  0  0  0  0  0  0  0
  1  2  1  0  0  0  0
  2  3  1  0  0  0  0
  3  4  2  0  0  0  0
  4  5  2  0  0  0  0
  4  6  2  0  0  0  0
  6  7  1  0  0  0  0
  7  8  1  0  0  0  0
  4  9  1  0  0  0  0
  9 10  1  0  0  0  0
 10 11  1  0  0  0  0
 11 12  1  0  0  0  0
 12 13  2  0  0  0  0
 12 14  2  0  0  0  0
 14 15  1  0  0  0  0
 15 16  1  0  0  0  0
 12 17  2  0  0  0  0
 17 18  1  0  0  0  0
 18 19  1  0  0  0  0
  1 20  1  0  0  0  0
  1 21  1  0  0  0  0
  1 22  1  0  0  0  0
  2 23  1  0  0  0  0
  2 24  1  0  0  0  0
  7 25  1  0  0  0  0
  7 26  1  0  0  0  0
  8 27  1  0  0  0  0
  8 28  1  0  0  0  0
  8 29  1  0  0  0  0
 10 30  1  0  0  0  0
 10 31  1  0  0  0  0
 15 32  1  0  0  0  0
 15 33  1  0  0  0  0
 16 34  1  0  0  0  0
 16 35  1  0  0  0  0
 16 36  1  0  0  0  0
 18 37  1  0  0  0  0
 18 38  1  0  0  0  0
 19 39  1  0  0  0  0
 19 40  1  0  0  0  0
 19 41  1  0  0  0  0
M  END
