 xtb: 6.7.1 (edcfbbe)
          04092505213D

 41 40  0     0  0            999 V2000
    4.9182   -1.3941   -1.8170 C   0  0  0  0  0  0  0  0  0  0  0  0
    4.8821   -0.0043   -1.2160 C   0  0  0  0  0  0  0  0  0  0  0  0
    3.8651    0.1107   -0.2050 O   0  0  0  0  0  0  0  0  0  0  0  0
    2.3174    0.0584   -0.5596 P   0  0  0  0  0  0  0  0  0  0  0  0
    1.8498    1.0040   -2.2192 S   0  0  0  0  0  0  0  0  0  0  0  0
    1.6589    0.5852    0.7814 O   0  0  0  0  0  0  0  0  0  0  0  0
    1.7001    1.9793    1.1584 C   0  0  0  0  0  0  0  0  0  0  0  0
    0.8527    2.1381    2.4031 C   0  0  0  0  0  0  0  0  0  0  0  0
    1.7759   -1.9677   -0.4122 S   0  0  0  0  0  0  0  0  0  0  0  0
   -0.0094   -1.7470   -0.6100 C   0  0  0  0  0  0  0  0  0  0  0  0
   -0.8293   -1.4130    0.9848 S   0  0  0  0  0  0  0  0  0  0  0  0
   -2.1002    0.1312    0.3305 P   0  0  0  0  0  0  0  0  0  0  0  0
   -1.3618    1.6337   -0.6811 S   0  0  0  0  0  0  0  0  0  0  0  0
   -2.8387    0.6347    1.6368 O   0  0  0  0  0  0  0  0  0  0  0  0
   -3.5700   -0.2497    2.5244 C   0  0  0  0  0  0  0  0  0  0  0  0
   -2.7429   -0.5806    3.7498 C   0  0  0  0  0  0  0  0  0  0  0  0
   -3.1284   -0.7758   -0.5016 O   0  0  0  0  0  0  0  0  0  0  0  0
   -3.9793   -0.2197   -1.5207 C   0  0  0  0  0  0  0  0  0  0  0  0
   -5.0882    0.6219   -0.9225 C   0  0  0  0  0  0  0  0  0  0  0  0
    5.7613   -1.4720   -2.4959 H   0  0  0  0  0  0  0  0  0  0  0  0
    5.0108   -2.1423   -1.0341 H   0  0  0  0  0  0  0  0  0  0  0  0
    3.9985   -1.5793   -2.3711 H   0  0  0  0  0  0  0  0  0  0  0  0
    4.6858    0.7453   -1.9895 H   0  0  0  0  0  0  0  0  0  0  0  0
    5.8059    0.2355   -0.6881 H   0  0  0  0  0  0  0  0  0  0  0  0
    2.7420    2.2532    1.3406 H   0  0  0  0  0  0  0  0  0  0  0  0
    1.3090    2.5751    0.3262 H   0  0  0  0  0  0  0  0  0  0  0  0
    1.2131    1.4737    3.1831 H   0  0  0  0  0  0  0  0  0  0  0  0
    0.9075    3.1671    2.7425 H   0  0  0  0  0  0  0  0  0  0  0  0
   -0.1842    1.8925    2.1803 H   0  0  0  0  0  0  0  0  0  0  0  0
   -0.4002   -2.6765   -1.0149 H   0  0  0  0  0  0  0  0  0  0  0  0
   -0.1906   -0.9071   -1.2861 H   0  0  0  0  0  0  0  0  0  0  0  0
   -4.4651    0.3145    2.7923 H   0  0  0  0  0  0  0  0  0  0  0  0
   -3.8481   -1.1533    1.9771 H   0  0  0  0  0  0  0  0  0  0  0  0
   -1.8534   -1.1406    3.4686 H   0  0  0  0  0  0  0  0  0  0  0  0
   -2.4394    0.3334    4.2525 H   0  0  0  0  0  0  0  0  0  0  0  0
   -3.3406   -1.1812    4.4281 H   0  0  0  0  0  0  0  0  0  0  0  0
   -3.3644    0.3812   -2.1987 H   0  0  0  0  0  0  0  0  0  0  0  0
   -4.3679   -1.0923   -2.0475 H   0  0  0  0  0  0  0  0  0  0  0  0
   -5.7314    0.9862   -1.7175 H   0  0  0  0  0  0  0  0  0  0  0  0
   -5.6769    0.0333   -0.2239 H   0  0  0  0  0  0  0  0  0  0  0  0
   -4.6585    1.4750   -0.3976 H   0  0  0  0  0  0  0  0  0  0  0  0
  1  2  1  0  0  0  0
  2  3  1  0  0  0  0
  3  4  2  0  0  0  0
  4  5  2  0  0  0  0
  4  6  2  0  0  0  0
  6  7  1  0  0  0  0
  7  8  1  0  0  0  0
  4  9  1  0  0  0  0
  9 10  1  0  0  0  0
 10 11  1  0  0  0  0
 11 12  1  0  0  0  0
 12 13  2  0  0  0  0
 12 14  2  0  0  0  0
 14 15  1  0  0  0  0
 15 16  1  0  0  0  0
 12 17  1  0  0  0  0
 17 18  1  0  0  0  0
 18 19  1  0  0  0  0
  1 20  1  0  0  0  0
  1 21  1  0  0  0  0
  1 22  1  0  0  0  0
  2 23  1  0  0  0  0
  2 24  1  0  0  0  0
  7 25  1  0  0  0  0
  7 26  1  0  0  0  0
  8 27  1  0  0  0  0
  8 28  1  0  0  0  0
  8 29  1  0  0  0  0
 10 30  1  0  0  0  0
 10 31  1  0  0  0  0
 15 32  1  0  0  0  0
 15 33  1  0  0  0  0
 16 34  1  0  0  0  0
 16 35  1  0  0  0  0
 16 36  1  0  0  0  0
 18 37  1  0  0  0  0
 18 38  1  0  0  0  0
 19 39  1  0  0  0  0
 19 40  1  0  0  0  0
 19 41  1  0  0  0  0
M  END
