 xtb: 6.7.1 (edcfbbe)
          04092505213D

 41 40  0     0  0            999 V2000
    4.8623    1.1766    0.7442 C   0  0  0  0  0  0  0  0  0  0  0  0
    3.6499    1.6231   -0.0438 C   0  0  0  0  0  0  0  0  0  0  0  0
    2.9179    0.4951   -0.5751 O   0  0  0  0  0  0  0  0  0  0  0  0
    2.1161   -0.4855    0.3673 P   0  0  0  0  0  0  0  0  0  0  0  0
    1.3948    0.2819    2.0239 S   0  0  0  0  0  0  0  0  0  0  0  0
    3.1493   -1.6666    0.6129 O   0  0  0  0  0  0  0  0  0  0  0  0
    2.9589   -2.6852    1.6125 C   0  0  0  0  0  0  0  0  0  0  0  0
    4.3234   -3.2080    2.0154 C   0  0  0  0  0  0  0  0  0  0  0  0
    0.7808   -1.3483   -1.0436 S   0  0  0  0  0  0  0  0  0  0  0  0
    0.2514    0.1653   -1.9011 C   0  0  0  0  0  0  0  0  0  0  0  0
   -0.5745    1.3598   -0.8321 S   0  0  0  0  0  0  0  0  0  0  0  0
   -2.4048    0.2719   -0.6188 P   0  0  0  0  0  0  0  0  0  0  0  0
   -2.9091   -0.8216   -2.1584 S   0  0  0  0  0  0  0  0  0  0  0  0
   -3.4120    1.3893   -0.1123 O   0  0  0  0  0  0  0  0  0  0  0  0
   -3.6072    2.6753   -0.7320 C   0  0  0  0  0  0  0  0  0  0  0  0
   -3.9370    2.5736   -2.2060 C   0  0  0  0  0  0  0  0  0  0  0  0
   -2.2658   -0.6506    0.6508 O   0  0  0  0  0  0  0  0  0  0  0  0
   -2.0838   -0.1575    1.9992 C   0  0  0  0  0  0  0  0  0  0  0  0
   -3.4059   -0.1294    2.7363 C   0  0  0  0  0  0  0  0  0  0  0  0
    5.4384    2.0465    1.0435 H   0  0  0  0  0  0  0  0  0  0  0  0
    4.5430    0.6392    1.6363 H   0  0  0  0  0  0  0  0  0  0  0  0
    5.4821    0.5195    0.1401 H   0  0  0  0  0  0  0  0  0  0  0  0
    3.9276    2.1948   -0.9300 H   0  0  0  0  0  0  0  0  0  0  0  0
    2.9725    2.2109    0.5838 H   0  0  0  0  0  0  0  0  0  0  0  0
    2.4307   -2.2451    2.4658 H   0  0  0  0  0  0  0  0  0  0  0  0
    2.3413   -3.4754    1.1770 H   0  0  0  0  0  0  0  0  0  0  0  0
    4.9146   -2.4126    2.4603 H   0  0  0  0  0  0  0  0  0  0  0  0
    4.1984   -4.0078    2.7378 H   0  0  0  0  0  0  0  0  0  0  0  0
    4.8451   -3.5891    1.1423 H   0  0  0  0  0  0  0  0  0  0  0  0
   -0.4473   -0.1684   -2.6712 H   0  0  0  0  0  0  0  0  0  0  0  0
    1.1168    0.6606   -2.3323 H   0  0  0  0  0  0  0  0  0  0  0  0
   -4.4347    3.1082   -0.1672 H   0  0  0  0  0  0  0  0  0  0  0  0
   -2.7016    3.2685   -0.5771 H   0  0  0  0  0  0  0  0  0  0  0  0
   -4.7944    1.9225   -2.3590 H   0  0  0  0  0  0  0  0  0  0  0  0
   -4.1612    3.5621   -2.5936 H   0  0  0  0  0  0  0  0  0  0  0  0
   -3.0913    2.1600   -2.7535 H   0  0  0  0  0  0  0  0  0  0  0  0
   -1.3835   -0.8570    2.4603 H   0  0  0  0  0  0  0  0  0  0  0  0
   -1.6222    0.8332    1.9644 H   0  0  0  0  0  0  0  0  0  0  0  0
   -4.0901    0.5647    2.2554 H   0  0  0  0  0  0  0  0  0  0  0  0
   -3.8520   -1.1202    2.7334 H   0  0  0  0  0  0  0  0  0  0  0  0
   -3.2321    0.1852    3.7605 H   0  0  0  0  0  0  0  0  0  0  0  0
  1  2  1  0  0  0  0
  2  3  1  0  0  0  0
  3  4  2  0  0  0  0
  4  5  2  0  0  0  0
  4  6  2  0  0  0  0
  6  7  1  0  0  0  0
  7  8  1  0  0  0  0
  4  9  1  0  0  0  0
  9 10  1  0  0  0  0
 10 11  1  0  0  0  0
 11 12  1  0  0  0  0
 12 13  2  0  0  0  0
 12 14  2  0  0  0  0
 14 15  1  0  0  0  0
 15 16  1  0  0  0  0
 12 17  2  0  0  0  0
 17 18  1  0  0  0  0
 18 19  1  0  0  0  0
  1 20  1  0  0  0  0
  1 21  1  0  0  0  0
  1 22  1  0  0  0  0
  2 23  1  0  0  0  0
  2 24  1  0  0  0  0
  7 25  1  0  0  0  0
  7 26  1  0  0  0  0
  8 27  1  0  0  0  0
  8 28  1  0  0  0  0
  8 29  1  0  0  0  0
 10 30  1  0  0  0  0
 10 31  1  0  0  0  0
 15 32  1  0  0  0  0
 15 33  1  0  0  0  0
 16 34  1  0  0  0  0
 16 35  1  0  0  0  0
 16 36  1  0  0  0  0
 18 37  1  0  0  0  0
 18 38  1  0  0  0  0
 19 39  1  0  0  0  0
 19 40  1  0  0  0  0
 19 41  1  0  0  0  0
M  END
