 xtb: 6.7.1 (edcfbbe)
          04092505213D

 41 40  0     0  0            999 V2000
    4.0601   -0.2929   -2.4308 C   0  0  0  0  0  0  0  0  0  0  0  0
    4.4208   -0.6418   -1.0008 C   0  0  0  0  0  0  0  0  0  0  0  0
    3.2531   -0.8187   -0.1853 O   0  0  0  0  0  0  0  0  0  0  0  0
    2.3448    0.4215    0.2607 P   0  0  0  0  0  0  0  0  0  0  0  0
    3.3516    2.0710    0.5890 S   0  0  0  0  0  0  0  0  0  0  0  0
    1.5211   -0.2236    1.4477 O   0  0  0  0  0  0  0  0  0  0  0  0
    2.1257   -0.7956    2.6302 C   0  0  0  0  0  0  0  0  0  0  0  0
    2.4097    0.2646    3.6750 C   0  0  0  0  0  0  0  0  0  0  0  0
    0.7901    0.5823   -1.1592 S   0  0  0  0  0  0  0  0  0  0  0  0
    0.1643   -1.1256   -1.0684 C   0  0  0  0  0  0  0  0  0  0  0  0
   -1.0393   -1.3732    0.2526 S   0  0  0  0  0  0  0  0  0  0  0  0
   -2.5264   -0.0649   -0.5358 P   0  0  0  0  0  0  0  0  0  0  0  0
   -2.6568   -0.0762   -2.4896 S   0  0  0  0  0  0  0  0  0  0  0  0
   -2.2517    1.4147   -0.0569 O   0  0  0  0  0  0  0  0  0  0  0  0
   -2.4054    1.9423    1.2813 C   0  0  0  0  0  0  0  0  0  0  0  0
   -1.1909    1.6677    2.1454 C   0  0  0  0  0  0  0  0  0  0  0  0
   -3.8150   -0.4333    0.3174 O   0  0  0  0  0  0  0  0  0  0  0  0
   -4.3031   -1.7692    0.5496 C   0  0  0  0  0  0  0  0  0  0  0  0
   -4.5539   -2.5327   -0.7334 C   0  0  0  0  0  0  0  0  0  0  0  0
    3.4013   -1.0462   -2.8555 H   0  0  0  0  0  0  0  0  0  0  0  0
    3.5542    0.6722   -2.4596 H   0  0  0  0  0  0  0  0  0  0  0  0
    4.9654   -0.2317   -3.0261 H   0  0  0  0  0  0  0  0  0  0  0  0
    5.0359    0.1486   -0.5587 H   0  0  0  0  0  0  0  0  0  0  0  0
    4.9398   -1.5992   -0.9366 H   0  0  0  0  0  0  0  0  0  0  0  0
    1.3806   -1.5129    2.9799 H   0  0  0  0  0  0  0  0  0  0  0  0
    3.0381   -1.3229    2.3430 H   0  0  0  0  0  0  0  0  0  0  0  0
    3.1342    0.9838    3.2981 H   0  0  0  0  0  0  0  0  0  0  0  0
    1.4963    0.7948    3.9301 H   0  0  0  0  0  0  0  0  0  0  0  0
    2.8110   -0.2094    4.5651 H   0  0  0  0  0  0  0  0  0  0  0  0
    0.9875   -1.8121   -0.8887 H   0  0  0  0  0  0  0  0  0  0  0  0
   -0.3200   -1.3131   -2.0272 H   0  0  0  0  0  0  0  0  0  0  0  0
   -2.5377    3.0131    1.1161 H   0  0  0  0  0  0  0  0  0  0  0  0
   -3.3096    1.5204    1.7233 H   0  0  0  0  0  0  0  0  0  0  0  0
   -1.0858    0.6026    2.3392 H   0  0  0  0  0  0  0  0  0  0  0  0
   -0.2878    2.0238    1.6513 H   0  0  0  0  0  0  0  0  0  0  0  0
   -1.3049    2.1919    3.0894 H   0  0  0  0  0  0  0  0  0  0  0  0
   -3.5762   -2.2932    1.1760 H   0  0  0  0  0  0  0  0  0  0  0  0
   -5.2284   -1.6094    1.1060 H   0  0  0  0  0  0  0  0  0  0  0  0
   -3.6175   -2.6920   -1.2657 H   0  0  0  0  0  0  0  0  0  0  0  0
   -4.9975   -3.4949   -0.4989 H   0  0  0  0  0  0  0  0  0  0  0  0
   -5.2243   -1.9745   -1.3826 H   0  0  0  0  0  0  0  0  0  0  0  0
  1  2  1  0  0  0  0
  2  3  1  0  0  0  0
  3  4  1  0  0  0  0
  4  5  2  0  0  0  0
  4  6  2  0  0  0  0
  6  7  1  0  0  0  0
  7  8  1  0  0  0  0
  4  9  1  0  0  0  0
  9 10  1  0  0  0  0
 10 11  1  0  0  0  0
 11 12  1  0  0  0  0
 12 13  2  0  0  0  0
 12 14  2  0  0  0  0
 14 15  1  0  0  0  0
 15 16  1  0  0  0  0
 12 17  2  0  0  0  0
 17 18  1  0  0  0  0
 18 19  1  0  0  0  0
  1 20  1  0  0  0  0
  1 21  1  0  0  0  0
  1 22  1  0  0  0  0
  2 23  1  0  0  0  0
  2 24  1  0  0  0  0
  7 25  1  0  0  0  0
  7 26  1  0  0  0  0
  8 27  1  0  0  0  0
  8 28  1  0  0  0  0
  8 29  1  0  0  0  0
 10 30  1  0  0  0  0
 10 31  1  0  0  0  0
 15 32  1  0  0  0  0
 15 33  1  0  0  0  0
 16 34  1  0  0  0  0
 16 35  1  0  0  0  0
 16 36  1  0  0  0  0
 18 37  1  0  0  0  0
 18 38  1  0  0  0  0
 19 39  1  0  0  0  0
 19 40  1  0  0  0  0
 19 41  1  0  0  0  0
M  END
