 xtb: 6.7.1 (edcfbbe)
          04092505213D

 41 40  0     0  0            999 V2000
    3.6390    1.5557   -1.6946 C   0  0  0  0  0  0  0  0  0  0  0  0
    2.2615    1.7357   -1.0937 C   0  0  0  0  0  0  0  0  0  0  0  0
    1.6396    0.4729   -0.7877 O   0  0  0  0  0  0  0  0  0  0  0  0
    2.1920   -0.5121    0.3192 P   0  0  0  0  0  0  0  0  0  0  0  0
    3.0370    0.3200    1.8834 S   0  0  0  0  0  0  0  0  0  0  0  0
    3.1300   -1.4724   -0.5274 O   0  0  0  0  0  0  0  0  0  0  0  0
    4.0922   -2.3487    0.0869 C   0  0  0  0  0  0  0  0  0  0  0  0
    3.4297   -3.4732    0.8564 C   0  0  0  0  0  0  0  0  0  0  0  0
    0.4508   -1.6525    0.6676 S   0  0  0  0  0  0  0  0  0  0  0  0
   -0.2325   -0.5872    1.9637 C   0  0  0  0  0  0  0  0  0  0  0  0
   -0.7342    1.0580    1.3735 S   0  0  0  0  0  0  0  0  0  0  0  0
   -2.0279    0.4953   -0.2195 P   0  0  0  0  0  0  0  0  0  0  0  0
   -1.3020    0.2227   -2.0238 S   0  0  0  0  0  0  0  0  0  0  0  0
   -3.1304    1.6391   -0.1571 O   0  0  0  0  0  0  0  0  0  0  0  0
   -3.0088    2.8898   -0.8589 C   0  0  0  0  0  0  0  0  0  0  0  0
   -4.4049    3.4143   -1.1306 C   0  0  0  0  0  0  0  0  0  0  0  0
   -2.7631   -0.7290    0.4533 O   0  0  0  0  0  0  0  0  0  0  0  0
   -3.4153   -1.7467   -0.3381 C   0  0  0  0  0  0  0  0  0  0  0  0
   -4.6649   -1.2124   -1.0041 C   0  0  0  0  0  0  0  0  0  0  0  0
    3.5867    0.8957   -2.5567 H   0  0  0  0  0  0  0  0  0  0  0  0
    4.0274    2.5224   -1.9995 H   0  0  0  0  0  0  0  0  0  0  0  0
    4.3107    1.1201   -0.9553 H   0  0  0  0  0  0  0  0  0  0  0  0
    1.5677    2.1990   -1.7975 H   0  0  0  0  0  0  0  0  0  0  0  0
    2.3090    2.3273   -0.1732 H   0  0  0  0  0  0  0  0  0  0  0  0
    4.6776   -2.7239   -0.7535 H   0  0  0  0  0  0  0  0  0  0  0  0
    4.7279   -1.7524    0.7494 H   0  0  0  0  0  0  0  0  0  0  0  0
    4.1879   -4.1721    1.1948 H   0  0  0  0  0  0  0  0  0  0  0  0
    2.9050   -3.0731    1.7231 H   0  0  0  0  0  0  0  0  0  0  0  0
    2.7142   -3.9928    0.2238 H   0  0  0  0  0  0  0  0  0  0  0  0
    0.5283   -0.4045    2.7238 H   0  0  0  0  0  0  0  0  0  0  0  0
   -1.0939   -1.1030    2.3788 H   0  0  0  0  0  0  0  0  0  0  0  0
   -2.4403    3.5776   -0.2269 H   0  0  0  0  0  0  0  0  0  0  0  0
   -2.4578    2.7168   -1.7903 H   0  0  0  0  0  0  0  0  0  0  0  0
   -4.3327    4.3801   -1.6198 H   0  0  0  0  0  0  0  0  0  0  0  0
   -4.9460    2.7264   -1.7741 H   0  0  0  0  0  0  0  0  0  0  0  0
   -4.9465    3.5229   -0.1956 H   0  0  0  0  0  0  0  0  0  0  0  0
   -2.7037   -2.1162   -1.0832 H   0  0  0  0  0  0  0  0  0  0  0  0
   -3.6400   -2.5339    0.3825 H   0  0  0  0  0  0  0  0  0  0  0  0
   -5.3258   -0.7707   -0.2631 H   0  0  0  0  0  0  0  0  0  0  0  0
   -4.3934   -0.4507   -1.7340 H   0  0  0  0  0  0  0  0  0  0  0  0
   -5.1777   -2.0226   -1.5127 H   0  0  0  0  0  0  0  0  0  0  0  0
  1  2  1  0  0  0  0
  2  3  1  0  0  0  0
  3  4  2  0  0  0  0
  4  5  2  0  0  0  0
  4  6  2  0  0  0  0
  6  7  1  0  0  0  0
  7  8  1  0  0  0  0
  4  9  1  0  0  0  0
  9 10  1  0  0  0  0
 10 11  1  0  0  0  0
 11 12  1  0  0  0  0
 12 13  2  0  0  0  0
 12 14  2  0  0  0  0
 14 15  1  0  0  0  0
 15 16  1  0  0  0  0
 12 17  2  0  0  0  0
 17 18  1  0  0  0  0
 18 19  1  0  0  0  0
  1 20  1  0  0  0  0
  1 21  1  0  0  0  0
  1 22  1  0  0  0  0
  2 23  1  0  0  0  0
  2 24  1  0  0  0  0
  7 25  1  0  0  0  0
  7 26  1  0  0  0  0
  8 27  1  0  0  0  0
  8 28  1  0  0  0  0
  8 29  1  0  0  0  0
 10 30  1  0  0  0  0
 10 31  1  0  0  0  0
 15 32  1  0  0  0  0
 15 33  1  0  0  0  0
 16 34  1  0  0  0  0
 16 35  1  0  0  0  0
 16 36  1  0  0  0  0
 18 37  1  0  0  0  0
 18 38  1  0  0  0  0
 19 39  1  0  0  0  0
 19 40  1  0  0  0  0
 19 41  1  0  0  0  0
M  END
