 xtb: 6.7.1 (edcfbbe)
          04092505203D

 41 40  0     0  0            999 V2000
    4.3676    2.1545   -0.8947 C   0  0  0  0  0  0  0  0  0  0  0  0
    4.6332    0.6683   -0.7682 C   0  0  0  0  0  0  0  0  0  0  0  0
    3.4293   -0.1105   -0.8956 O   0  0  0  0  0  0  0  0  0  0  0  0
    2.2793   -0.0791    0.1981 P   0  0  0  0  0  0  0  0  0  0  0  0
    2.8976    0.0151    2.0586 S   0  0  0  0  0  0  0  0  0  0  0  0
    1.4177   -1.3490   -0.1891 O   0  0  0  0  0  0  0  0  0  0  0  0
    1.6269   -2.6463    0.3991 C   0  0  0  0  0  0  0  0  0  0  0  0
    2.9605   -3.2393   -0.0019 C   0  0  0  0  0  0  0  0  0  0  0  0
    0.9713    1.4373   -0.4595 S   0  0  0  0  0  0  0  0  0  0  0  0
    0.0539    1.6032    1.0951 C   0  0  0  0  0  0  0  0  0  0  0  0
   -0.8946    0.1184    1.5463 S   0  0  0  0  0  0  0  0  0  0  0  0
   -2.0399   -0.1540   -0.2225 P   0  0  0  0  0  0  0  0  0  0  0  0
   -1.3539   -1.1332   -1.7657 S   0  0  0  0  0  0  0  0  0  0  0  0
   -2.4414    1.3714   -0.4806 O   0  0  0  0  0  0  0  0  0  0  0  0
   -2.7787    1.8483   -1.7981 C   0  0  0  0  0  0  0  0  0  0  0  0
   -4.1653    1.3928   -2.2040 C   0  0  0  0  0  0  0  0  0  0  0  0
   -3.3200   -0.9050    0.3358 O   0  0  0  0  0  0  0  0  0  0  0  0
   -4.1539   -0.3660    1.3931 C   0  0  0  0  0  0  0  0  0  0  0  0
   -5.5764   -0.8260    1.1473 C   0  0  0  0  0  0  0  0  0  0  0  0
    3.7814    2.5015   -0.0446 H   0  0  0  0  0  0  0  0  0  0  0  0
    5.3128    2.6875   -0.9122 H   0  0  0  0  0  0  0  0  0  0  0  0
    3.8167    2.3632   -1.8084 H   0  0  0  0  0  0  0  0  0  0  0  0
    5.0894    0.4410    0.2008 H   0  0  0  0  0  0  0  0  0  0  0  0
    5.2684    0.3004   -1.5749 H   0  0  0  0  0  0  0  0  0  0  0  0
    1.5534   -2.5463    1.4876 H   0  0  0  0  0  0  0  0  0  0  0  0
    0.7884   -3.2365    0.0244 H   0  0  0  0  0  0  0  0  0  0  0  0
    3.7709   -2.6438    0.4177 H   0  0  0  0  0  0  0  0  0  0  0  0
    3.0320   -4.2533    0.3787 H   0  0  0  0  0  0  0  0  0  0  0  0
    3.0531   -3.2492   -1.0850 H   0  0  0  0  0  0  0  0  0  0  0  0
   -0.6197    2.4472    0.9768 H   0  0  0  0  0  0  0  0  0  0  0  0
    0.7526    1.7615    1.9172 H   0  0  0  0  0  0  0  0  0  0  0  0
   -2.7113    2.9338   -1.7155 H   0  0  0  0  0  0  0  0  0  0  0  0
   -2.0281    1.4816   -2.5051 H   0  0  0  0  0  0  0  0  0  0  0  0
   -4.4035    1.7922   -3.1846 H   0  0  0  0  0  0  0  0  0  0  0  0
   -4.1922    0.3042   -2.2495 H   0  0  0  0  0  0  0  0  0  0  0  0
   -4.9039    1.7386   -1.4853 H   0  0  0  0  0  0  0  0  0  0  0  0
   -3.7674   -0.7483    2.3405 H   0  0  0  0  0  0  0  0  0  0  0  0
   -4.0772    0.7240    1.3847 H   0  0  0  0  0  0  0  0  0  0  0  0
   -5.6134   -1.9111    1.1140 H   0  0  0  0  0  0  0  0  0  0  0  0
   -6.2098   -0.4689    1.9530 H   0  0  0  0  0  0  0  0  0  0  0  0
   -5.9423   -0.4366    0.2013 H   0  0  0  0  0  0  0  0  0  0  0  0
  1  2  1  0  0  0  0
  2  3  1  0  0  0  0
  3  4  2  0  0  0  0
  4  5  2  0  0  0  0
  4  6  2  0  0  0  0
  6  7  1  0  0  0  0
  7  8  1  0  0  0  0
  4  9  1  0  0  0  0
  9 10  1  0  0  0  0
 10 11  1  0  0  0  0
 11 12  1  0  0  0  0
 12 13  2  0  0  0  0
 12 14  1  0  0  0  0
 14 15  1  0  0  0  0
 15 16  1  0  0  0  0
 12 17  2  0  0  0  0
 17 18  1  0  0  0  0
 18 19  1  0  0  0  0
  1 20  1  0  0  0  0
  1 21  1  0  0  0  0
  1 22  1  0  0  0  0
  2 23  1  0  0  0  0
  2 24  1  0  0  0  0
  7 25  1  0  0  0  0
  7 26  1  0  0  0  0
  8 27  1  0  0  0  0
  8 28  1  0  0  0  0
  8 29  1  0  0  0  0
 10 30  1  0  0  0  0
 10 31  1  0  0  0  0
 15 32  1  0  0  0  0
 15 33  1  0  0  0  0
 16 34  1  0  0  0  0
 16 35  1  0  0  0  0
 16 36  1  0  0  0  0
 18 37  1  0  0  0  0
 18 38  1  0  0  0  0
 19 39  1  0  0  0  0
 19 40  1  0  0  0  0
 19 41  1  0  0  0  0
M  END
