 xtb: 6.7.1 (edcfbbe)
          04032520173D

 19 19  0     0  0            999 V2000
   -3.0787    0.3752    0.0054 C   0  0  0  0  0  0  0  0  0  0  0  0
   -1.6169    0.0455   -0.0043 C   0  0  0  0  0  0  0  0  0  0  0  0
   -1.1904   -1.2772   -0.0029 C   0  0  0  0  0  0  0  0  0  0  0  0
    0.1582   -1.5785   -0.0004 C   0  0  0  0  0  0  0  0  0  0  0  0
    1.1270   -0.5850    0.0008 C   0  0  0  0  0  0  0  0  0  0  0  0
    0.6970    0.7444   -0.0004 C   0  0  0  0  0  0  0  0  0  0  0  0
   -0.6596    1.0463   -0.0027 C   0  0  0  0  0  0  0  0  0  0  0  0
    1.5678    1.7970   -0.0004 O   0  0  0  0  0  0  0  0  0  0  0  0
    2.5906   -0.9269    0.0021 C   0  0  0  0  0  0  0  0  0  0  0  0
   -3.5110    0.1254    0.9736 H   0  0  0  0  0  0  0  0  0  0  0  0
   -3.2384    1.4335   -0.1811 H   0  0  0  0  0  0  0  0  0  0  0  0
   -3.6039   -0.2015   -0.7532 H   0  0  0  0  0  0  0  0  0  0  0  0
   -1.9193   -2.0739   -0.0043 H   0  0  0  0  0  0  0  0  0  0  0  0
    0.4714   -2.6127    0.0001 H   0  0  0  0  0  0  0  0  0  0  0  0
   -0.9451    2.0876   -0.0041 H   0  0  0  0  0  0  0  0  0  0  0  0
    2.4814    1.4766   -0.0002 H   0  0  0  0  0  0  0  0  0  0  0  0
    3.0853   -0.5307   -0.8850 H   0  0  0  0  0  0  0  0  0  0  0  0
    3.0845   -0.5273    0.8881 H   0  0  0  0  0  0  0  0  0  0  0  0
    2.7185   -2.0057    0.0041 H   0  0  0  0  0  0  0  0  0  0  0  0
  1  2  1  0  0  0  0
  2  3  4  0  0  0  0
  3  4  4  0  0  0  0
  4  5  4  0  0  0  0
  5  6  4  0  0  0  0
  2  7  4  0  0  0  0
  6  7  4  0  0  0  0
  6  8  1  0  0  0  0
  5  9  1  0  0  0  0
  1 10  1  0  0  0  0
  1 11  1  0  0  0  0
  1 12  1  0  0  0  0
  3 13  1  0  0  0  0
  4 14  1  0  0  0  0
  7 15  1  0  0  0  0
  8 16  1  0  0  0  0
  9 17  1  0  0  0  0
  9 18  1  0  0  0  0
  9 19  1  0  0  0  0
M  END
