 xtb: 6.7.1 (edcfbbe)
          04092505213D

 41 40  0     0  0            999 V2000
    5.5240   -0.4154    0.8422 C   0  0  0  0  0  0  0  0  0  0  0  0
    4.4502   -1.2536    0.1796 C   0  0  0  0  0  0  0  0  0  0  0  0
    3.7531   -0.4925   -0.8384 O   0  0  0  0  0  0  0  0  0  0  0  0
    2.4054    0.2815   -0.5920 P   0  0  0  0  0  0  0  0  0  0  0  0
    1.8147    1.1701   -2.2281 S   0  0  0  0  0  0  0  0  0  0  0  0
    2.7461    1.1780    0.6740 O   0  0  0  0  0  0  0  0  0  0  0  0
    1.8424    2.1711    1.1980 C   0  0  0  0  0  0  0  0  0  0  0  0
    2.1906    3.5441    0.6589 C   0  0  0  0  0  0  0  0  0  0  0  0
    1.0706   -1.1849    0.2256 S   0  0  0  0  0  0  0  0  0  0  0  0
    0.1371   -1.5541   -1.2925 C   0  0  0  0  0  0  0  0  0  0  0  0
   -1.5453   -2.1095   -0.9315 S   0  0  0  0  0  0  0  0  0  0  0  0
   -2.1828   -0.4516    0.2100 P   0  0  0  0  0  0  0  0  0  0  0  0
   -1.5067    1.3231   -0.3033 S   0  0  0  0  0  0  0  0  0  0  0  0
   -1.8474   -0.9461    1.6703 O   0  0  0  0  0  0  0  0  0  0  0  0
   -1.6723   -0.0403    2.7797 C   0  0  0  0  0  0  0  0  0  0  0  0
   -2.9776    0.6199    3.1692 C   0  0  0  0  0  0  0  0  0  0  0  0
   -3.7636   -0.5893    0.1752 O   0  0  0  0  0  0  0  0  0  0  0  0
   -4.5394   -0.1827   -0.9698 C   0  0  0  0  0  0  0  0  0  0  0  0
   -5.9839   -0.0549   -0.5302 C   0  0  0  0  0  0  0  0  0  0  0  0
    6.2054   -0.0247    0.0915 H   0  0  0  0  0  0  0  0  0  0  0  0
    5.0771    0.4177    1.3773 H   0  0  0  0  0  0  0  0  0  0  0  0
    6.0769   -1.0359    1.5406 H   0  0  0  0  0  0  0  0  0  0  0  0
    3.7211   -1.6176    0.9092 H   0  0  0  0  0  0  0  0  0  0  0  0
    4.8825   -2.0956   -0.3639 H   0  0  0  0  0  0  0  0  0  0  0  0
    0.8142    1.9085    0.9348 H   0  0  0  0  0  0  0  0  0  0  0  0
    1.9705    2.1215    2.2811 H   0  0  0  0  0  0  0  0  0  0  0  0
    1.5336    4.2812    1.1090 H   0  0  0  0  0  0  0  0  0  0  0  0
    3.2238    3.7884    0.8887 H   0  0  0  0  0  0  0  0  0  0  0  0
    2.0542    3.5646   -0.4205 H   0  0  0  0  0  0  0  0  0  0  0  0
    0.6165   -2.3705   -1.8274 H   0  0  0  0  0  0  0  0  0  0  0  0
    0.1087   -0.6459   -1.9022 H   0  0  0  0  0  0  0  0  0  0  0  0
   -1.2798   -0.6765    3.5737 H   0  0  0  0  0  0  0  0  0  0  0  0
   -0.9261    0.7107    2.5007 H   0  0  0  0  0  0  0  0  0  0  0  0
   -3.7338   -0.1344    3.3691 H   0  0  0  0  0  0  0  0  0  0  0  0
   -2.8261    1.2279    4.0555 H   0  0  0  0  0  0  0  0  0  0  0  0
   -3.3225    1.2570    2.3554 H   0  0  0  0  0  0  0  0  0  0  0  0
   -4.1454    0.7703   -1.3394 H   0  0  0  0  0  0  0  0  0  0  0  0
   -4.4243   -0.9419   -1.7483 H   0  0  0  0  0  0  0  0  0  0  0  0
   -6.0773    0.7101    0.2353 H   0  0  0  0  0  0  0  0  0  0  0  0
   -6.5932    0.2181   -1.3855 H   0  0  0  0  0  0  0  0  0  0  0  0
   -6.3311   -1.0016   -0.1269 H   0  0  0  0  0  0  0  0  0  0  0  0
  1  2  1  0  0  0  0
  2  3  1  0  0  0  0
  3  4  2  0  0  0  0
  4  5  2  0  0  0  0
  4  6  2  0  0  0  0
  6  7  1  0  0  0  0
  7  8  1  0  0  0  0
  4  9  1  0  0  0  0
  9 10  1  0  0  0  0
 10 11  1  0  0  0  0
 11 12  1  0  0  0  0
 12 13  2  0  0  0  0
 12 14  2  0  0  0  0
 14 15  1  0  0  0  0
 15 16  1  0  0  0  0
 12 17  2  0  0  0  0
 17 18  1  0  0  0  0
 18 19  1  0  0  0  0
  1 20  1  0  0  0  0
  1 21  1  0  0  0  0
  1 22  1  0  0  0  0
  2 23  1  0  0  0  0
  2 24  1  0  0  0  0
  7 25  1  0  0  0  0
  7 26  1  0  0  0  0
  8 27  1  0  0  0  0
  8 28  1  0  0  0  0
  8 29  1  0  0  0  0
 10 30  1  0  0  0  0
 10 31  1  0  0  0  0
 15 32  1  0  0  0  0
 15 33  1  0  0  0  0
 16 34  1  0  0  0  0
 16 35  1  0  0  0  0
 16 36  1  0  0  0  0
 18 37  1  0  0  0  0
 18 38  1  0  0  0  0
 19 39  1  0  0  0  0
 19 40  1  0  0  0  0
 19 41  1  0  0  0  0
M  END
