 xtb: 6.7.1 (edcfbbe)
          04092505203D

 41 40  0     0  0            999 V2000
    1.6553   -1.3070   -2.6431 C   0  0  0  0  0  0  0  0  0  0  0  0
    2.3529    0.0161   -2.4112 C   0  0  0  0  0  0  0  0  0  0  0  0
    1.9741    0.6299   -1.1541 O   0  0  0  0  0  0  0  0  0  0  0  0
    2.1967   -0.0029    0.2724 P   0  0  0  0  0  0  0  0  0  0  0  0
    2.3833    1.3108    1.7140 S   0  0  0  0  0  0  0  0  0  0  0  0
    3.5080   -0.8700    0.0211 O   0  0  0  0  0  0  0  0  0  0  0  0
    4.2979   -1.4170    1.0931 C   0  0  0  0  0  0  0  0  0  0  0  0
    3.8894   -2.8409    1.4162 C   0  0  0  0  0  0  0  0  0  0  0  0
    0.6764   -1.4570    0.6028 S   0  0  0  0  0  0  0  0  0  0  0  0
   -0.3170   -0.6453    1.8910 C   0  0  0  0  0  0  0  0  0  0  0  0
   -2.0619   -0.5215    1.4462 S   0  0  0  0  0  0  0  0  0  0  0  0
   -1.8534    0.6900   -0.2907 P   0  0  0  0  0  0  0  0  0  0  0  0
   -0.5985    2.1836   -0.0828 S   0  0  0  0  0  0  0  0  0  0  0  0
   -3.3566    1.0943   -0.5996 O   0  0  0  0  0  0  0  0  0  0  0  0
   -4.0726    2.0088    0.2561 C   0  0  0  0  0  0  0  0  0  0  0  0
   -5.3049    2.4748   -0.4921 C   0  0  0  0  0  0  0  0  0  0  0  0
   -1.4925   -0.2121   -1.5290 O   0  0  0  0  0  0  0  0  0  0  0  0
   -2.3790   -1.1756   -2.1645 C   0  0  0  0  0  0  0  0  0  0  0  0
   -2.3814   -2.5071   -1.4412 C   0  0  0  0  0  0  0  0  0  0  0  0
    1.9739   -2.0365   -1.9003 H   0  0  0  0  0  0  0  0  0  0  0  0
    0.5794   -1.1752   -2.5681 H   0  0  0  0  0  0  0  0  0  0  0  0
    1.9071   -1.6724   -3.6337 H   0  0  0  0  0  0  0  0  0  0  0  0
    2.0543    0.7646   -3.1472 H   0  0  0  0  0  0  0  0  0  0  0  0
    3.4383   -0.1021   -2.4171 H   0  0  0  0  0  0  0  0  0  0  0  0
    5.3232   -1.3762    0.7204 H   0  0  0  0  0  0  0  0  0  0  0  0
    4.2035   -0.7634    1.9667 H   0  0  0  0  0  0  0  0  0  0  0  0
    4.5673   -3.2384    2.1646 H   0  0  0  0  0  0  0  0  0  0  0  0
    2.8745   -2.8721    1.8040 H   0  0  0  0  0  0  0  0  0  0  0  0
    3.9423   -3.4563    0.5225 H   0  0  0  0  0  0  0  0  0  0  0  0
    0.0986    0.3510    2.0683 H   0  0  0  0  0  0  0  0  0  0  0  0
   -0.2804   -1.2509    2.7930 H   0  0  0  0  0  0  0  0  0  0  0  0
   -4.3377    1.4782    1.1743 H   0  0  0  0  0  0  0  0  0  0  0  0
   -3.4096    2.8444    0.5033 H   0  0  0  0  0  0  0  0  0  0  0  0
   -5.8622    3.1619    0.1359 H   0  0  0  0  0  0  0  0  0  0  0  0
   -5.0158    2.9815   -1.4086 H   0  0  0  0  0  0  0  0  0  0  0  0
   -5.9329    1.6245   -0.7404 H   0  0  0  0  0  0  0  0  0  0  0  0
   -3.3793   -0.7449   -2.2156 H   0  0  0  0  0  0  0  0  0  0  0  0
   -1.9655   -1.2691   -3.1703 H   0  0  0  0  0  0  0  0  0  0  0  0
   -2.8839   -2.4253   -0.4810 H   0  0  0  0  0  0  0  0  0  0  0  0
   -2.9056   -3.2344   -2.0532 H   0  0  0  0  0  0  0  0  0  0  0  0
   -1.3627   -2.8485   -1.2734 H   0  0  0  0  0  0  0  0  0  0  0  0
  1  2  1  0  0  0  0
  2  3  1  0  0  0  0
  3  4  2  0  0  0  0
  4  5  2  0  0  0  0
  4  6  2  0  0  0  0
  6  7  1  0  0  0  0
  7  8  1  0  0  0  0
  4  9  1  0  0  0  0
  9 10  1  0  0  0  0
 10 11  1  0  0  0  0
 11 12  1  0  0  0  0
 12 13  2  0  0  0  0
 12 14  2  0  0  0  0
 14 15  1  0  0  0  0
 15 16  1  0  0  0  0
 12 17  2  0  0  0  0
 17 18  1  0  0  0  0
 18 19  1  0  0  0  0
  1 20  1  0  0  0  0
  1 21  1  0  0  0  0
  1 22  1  0  0  0  0
  2 23  1  0  0  0  0
  2 24  1  0  0  0  0
  7 25  1  0  0  0  0
  7 26  1  0  0  0  0
  8 27  1  0  0  0  0
  8 28  1  0  0  0  0
  8 29  1  0  0  0  0
 10 30  1  0  0  0  0
 10 31  1  0  0  0  0
 15 32  1  0  0  0  0
 15 33  1  0  0  0  0
 16 34  1  0  0  0  0
 16 35  1  0  0  0  0
 16 36  1  0  0  0  0
 18 37  1  0  0  0  0
 18 38  1  0  0  0  0
 19 39  1  0  0  0  0
 19 40  1  0  0  0  0
 19 41  1  0  0  0  0
M  END
