 xtb: 6.7.1 (edcfbbe)
          04092505213D

 41 40  0     0  0            999 V2000
    1.5681    2.6852    0.5196 C   0  0  0  0  0  0  0  0  0  0  0  0
    2.4042    2.0680    1.6215 C   0  0  0  0  0  0  0  0  0  0  0  0
    2.8899    0.7611    1.2659 O   0  0  0  0  0  0  0  0  0  0  0  0
    1.9281   -0.4988    1.1491 P   0  0  0  0  0  0  0  0  0  0  0  0
    0.5346   -0.6374    2.5123 S   0  0  0  0  0  0  0  0  0  0  0  0
    2.9159   -1.7278    1.2466 O   0  0  0  0  0  0  0  0  0  0  0  0
    4.0782   -1.9136    0.4019 C   0  0  0  0  0  0  0  0  0  0  0  0
    5.3153   -1.3056    1.0302 C   0  0  0  0  0  0  0  0  0  0  0  0
    1.3197   -0.4867   -0.8944 S   0  0  0  0  0  0  0  0  0  0  0  0
    0.0827   -1.8144   -0.7545 C   0  0  0  0  0  0  0  0  0  0  0  0
   -1.3604   -1.5625   -1.8256 S   0  0  0  0  0  0  0  0  0  0  0  0
   -2.2807    0.1019   -0.9047 P   0  0  0  0  0  0  0  0  0  0  0  0
   -4.0868    0.5384   -1.5209 S   0  0  0  0  0  0  0  0  0  0  0  0
   -1.2475    1.3157   -0.9964 O   0  0  0  0  0  0  0  0  0  0  0  0
   -1.2465    2.2251   -2.1093 C   0  0  0  0  0  0  0  0  0  0  0  0
   -0.7187    1.5718   -3.3708 C   0  0  0  0  0  0  0  0  0  0  0  0
   -2.1331   -0.3421    0.6089 O   0  0  0  0  0  0  0  0  0  0  0  0
   -2.9506    0.2222    1.6535 C   0  0  0  0  0  0  0  0  0  0  0  0
   -2.5684    1.6549    1.9556 C   0  0  0  0  0  0  0  0  0  0  0  0
    1.3249    3.7090    0.7862 H   0  0  0  0  0  0  0  0  0  0  0  0
    2.1169    2.6753   -0.4190 H   0  0  0  0  0  0  0  0  0  0  0  0
    0.6434    2.1243    0.3927 H   0  0  0  0  0  0  0  0  0  0  0  0
    1.8256    1.9814    2.5469 H   0  0  0  0  0  0  0  0  0  0  0  0
    3.3124    2.6434    1.8071 H   0  0  0  0  0  0  0  0  0  0  0  0
    4.1718   -2.9974    0.3121 H   0  0  0  0  0  0  0  0  0  0  0  0
    3.8758   -1.4738   -0.5789 H   0  0  0  0  0  0  0  0  0  0  0  0
    5.4627   -1.7090    2.0284 H   0  0  0  0  0  0  0  0  0  0  0  0
    6.1778   -1.5463    0.4163 H   0  0  0  0  0  0  0  0  0  0  0  0
    5.2146   -0.2261    1.0992 H   0  0  0  0  0  0  0  0  0  0  0  0
   -0.2414   -1.8796    0.2852 H   0  0  0  0  0  0  0  0  0  0  0  0
    0.5201   -2.7494   -1.0963 H   0  0  0  0  0  0  0  0  0  0  0  0
   -2.2696    2.5848   -2.2604 H   0  0  0  0  0  0  0  0  0  0  0  0
   -0.6061    3.0453   -1.7818 H   0  0  0  0  0  0  0  0  0  0  0  0
   -1.4015    0.7875   -3.6970 H   0  0  0  0  0  0  0  0  0  0  0  0
   -0.6390    2.3176   -4.1548 H   0  0  0  0  0  0  0  0  0  0  0  0
    0.2589    1.1316   -3.1873 H   0  0  0  0  0  0  0  0  0  0  0  0
   -3.9986    0.1523    1.3453 H   0  0  0  0  0  0  0  0  0  0  0  0
   -2.7634   -0.4297    2.5084 H   0  0  0  0  0  0  0  0  0  0  0  0
   -2.7619    2.2836    1.0881 H   0  0  0  0  0  0  0  0  0  0  0  0
   -3.1584    2.0122    2.7935 H   0  0  0  0  0  0  0  0  0  0  0  0
   -1.5130    1.7071    2.2117 H   0  0  0  0  0  0  0  0  0  0  0  0
  1  2  1  0  0  0  0
  2  3  1  0  0  0  0
  3  4  2  0  0  0  0
  4  5  2  0  0  0  0
  4  6  2  0  0  0  0
  6  7  1  0  0  0  0
  7  8  1  0  0  0  0
  4  9  1  0  0  0  0
  9 10  1  0  0  0  0
 10 11  1  0  0  0  0
 11 12  1  0  0  0  0
 12 13  2  0  0  0  0
 12 14  2  0  0  0  0
 14 15  1  0  0  0  0
 15 16  1  0  0  0  0
 12 17  2  0  0  0  0
 17 18  1  0  0  0  0
 18 19  1  0  0  0  0
  1 20  1  0  0  0  0
  1 21  1  0  0  0  0
  1 22  1  0  0  0  0
  2 23  1  0  0  0  0
  2 24  1  0  0  0  0
  7 25  1  0  0  0  0
  7 26  1  0  0  0  0
  8 27  1  0  0  0  0
  8 28  1  0  0  0  0
  8 29  1  0  0  0  0
 10 30  1  0  0  0  0
 10 31  1  0  0  0  0
 15 32  1  0  0  0  0
 15 33  1  0  0  0  0
 16 34  1  0  0  0  0
 16 35  1  0  0  0  0
 16 36  1  0  0  0  0
 18 37  1  0  0  0  0
 18 38  1  0  0  0  0
 19 39  1  0  0  0  0
 19 40  1  0  0  0  0
 19 41  1  0  0  0  0
M  END
