 xtb: 6.7.1 (edcfbbe)
          04032520513D

 18 18  0     0  0            999 V2000
    0.0010   -2.4199    0.0583 C   0  0  0  0  0  0  0  0  0  0  0  0
    1.1984   -1.7267    0.1073 C   0  0  0  0  0  0  0  0  0  0  0  0
    1.1878   -0.3365    0.0793 C   0  0  0  0  0  0  0  0  0  0  0  0
   -0.0032    0.3703    0.0022 C   0  0  0  0  0  0  0  0  0  0  0  0
   -1.1926   -0.3430   -0.0434 C   0  0  0  0  0  0  0  0  0  0  0  0
   -1.1988   -1.7329   -0.0184 C   0  0  0  0  0  0  0  0  0  0  0  0
   -2.5019    0.3847   -0.1478 C   0  0  0  0  0  0  0  0  0  0  0  0
   -3.4349   -0.1053    0.6901 F   0  0  0  0  0  0  0  0  0  0  0  0
   -2.4131    1.6967    0.1156 F   0  0  0  0  0  0  0  0  0  0  0  0
   -3.0414    0.2900   -1.3833 F   0  0  0  0  0  0  0  0  0  0  0  0
    2.5004    0.3907    0.1338 C   0  0  0  0  0  0  0  0  0  0  0  0
    2.3835    1.7256    0.1005 F   0  0  0  0  0  0  0  0  0  0  0  0
    3.1994    0.1036    1.2515 F   0  0  0  0  0  0  0  0  0  0  0  0
    3.3123    0.0602   -0.8920 F   0  0  0  0  0  0  0  0  0  0  0  0
    0.0026   -3.4968    0.0798 H   0  0  0  0  0  0  0  0  0  0  0  0
    2.1381   -2.2529    0.1671 H   0  0  0  0  0  0  0  0  0  0  0  0
   -0.0054    1.4489   -0.0179 H   0  0  0  0  0  0  0  0  0  0  0  0
   -2.1367   -2.2646   -0.0544 H   0  0  0  0  0  0  0  0  0  0  0  0
  1  2  4  0  0  0  0
  2  3  4  0  0  0  0
  3  4  4  0  0  0  0
  4  5  4  0  0  0  0
  1  6  4  0  0  0  0
  5  6  4  0  0  0  0
  5  7  1  0  0  0  0
  7  8  1  0  0  0  0
  7  9  1  0  0  0  0
  7 10  1  0  0  0  0
  3 11  1  0  0  0  0
 11 12  1  0  0  0  0
 11 13  1  0  0  0  0
 11 14  1  0  0  0  0
  1 15  1  0  0  0  0
  2 16  1  0  0  0  0
  4 17  1  0  0  0  0
  6 18  1  0  0  0  0
M  END
