 xtb: 6.7.1 (edcfbbe)
          04092507313D

 38 37  0     0  0            999 V2000
    5.3650   -1.9035   -1.4705 C   0  0  0  0  0  0  0  0  0  0  0  0
    4.6156   -0.6204   -1.1479 C   0  0  0  0  0  0  0  0  0  0  0  0
    3.1931   -0.8038   -1.2830 O   0  0  0  0  0  0  0  0  0  0  0  0
    2.5230   -1.2823   -0.2528 C   0  0  0  0  0  0  0  0  0  0  0  0
    3.0148   -1.5814    0.8108 O   0  0  0  0  0  0  0  0  0  0  0  0
    1.0434   -1.4207   -0.5710 C   0  0  0  0  0  0  0  0  0  0  0  0
    0.4719   -0.0928   -1.0698 C   0  0  0  0  0  0  0  0  0  0  0  0
    1.0115    0.2279   -1.9650 H   0  0  0  0  0  0  0  0  0  0  0  0
    0.5713    0.9845   -0.0084 C   0  0  0  0  0  0  0  0  0  0  0  0
   -0.4118    1.5428    0.4400 O   0  0  0  0  0  0  0  0  0  0  0  0
    1.8008    1.2129    0.3569 O   0  0  0  0  0  0  0  0  0  0  0  0
    2.0375    2.1910    1.3960 C   0  0  0  0  0  0  0  0  0  0  0  0
    2.1120    3.5917    0.8130 C   0  0  0  0  0  0  0  0  0  0  0  0
   -1.2744   -0.2336   -1.5653 S   0  0  0  0  0  0  0  0  0  0  0  0
   -2.2617   -0.1295    0.2990 P   0  0  0  0  0  0  0  0  0  0  0  0
   -1.5286   -0.7428    2.0107 S   0  0  0  0  0  0  0  0  0  0  0  0
   -3.0655    1.2406    0.4653 O   0  0  0  0  0  0  0  0  0  0  0  0
   -3.6405    1.9165   -0.6659 C   0  0  0  0  0  0  0  0  0  0  0  0
   -3.4005   -1.1542   -0.2428 O   0  0  0  0  0  0  0  0  0  0  0  0
   -4.4573   -1.5793    0.6181 C   0  0  0  0  0  0  0  0  0  0  0  0
    6.4328   -1.7161   -1.4274 H   0  0  0  0  0  0  0  0  0  0  0  0
    5.1132   -2.6750   -0.7464 H   0  0  0  0  0  0  0  0  0  0  0  0
    5.1017   -2.2513   -2.4654 H   0  0  0  0  0  0  0  0  0  0  0  0
    4.8562    0.1696   -1.8591 H   0  0  0  0  0  0  0  0  0  0  0  0
    4.8282   -0.2948   -0.1261 H   0  0  0  0  0  0  0  0  0  0  0  0
    0.5265   -1.7552    0.3316 H   0  0  0  0  0  0  0  0  0  0  0  0
    0.9217   -2.1700   -1.3547 H   0  0  0  0  0  0  0  0  0  0  0  0
    1.2346    2.1110    2.1340 H   0  0  0  0  0  0  0  0  0  0  0  0
    2.9857    1.8844    1.8379 H   0  0  0  0  0  0  0  0  0  0  0  0
    2.8725    3.6364    0.0387 H   0  0  0  0  0  0  0  0  0  0  0  0
    1.1510    3.8728    0.3884 H   0  0  0  0  0  0  0  0  0  0  0  0
    2.3639    4.2904    1.6038 H   0  0  0  0  0  0  0  0  0  0  0  0
   -4.0487    1.1970   -1.3773 H   0  0  0  0  0  0  0  0  0  0  0  0
   -2.8739    2.5224   -1.1476 H   0  0  0  0  0  0  0  0  0  0  0  0
   -4.4264    2.5481   -0.2589 H   0  0  0  0  0  0  0  0  0  0  0  0
   -4.0437   -2.0559    1.5089 H   0  0  0  0  0  0  0  0  0  0  0  0
   -5.0376   -2.2926    0.0387 H   0  0  0  0  0  0  0  0  0  0  0  0
   -5.0751   -0.7311    0.9170 H   0  0  0  0  0  0  0  0  0  0  0  0
  1  2  1  0  0  0  0
  2  3  1  0  0  0  0
  3  4  1  0  0  0  0
  4  5  2  0  0  0  0
  4  6  1  0  0  0  0
  6  7  1  0  0  0  0
  7  8  1  0  0  0  0
  7  9  1  0  0  0  0
  9 10  2  0  0  0  0
  9 11  4  0  0  0  0
 11 12  1  0  0  0  0
 12 13  1  0  0  0  0
  7 14  1  0  0  0  0
 14 15  1  0  0  0  0
 15 16  2  0  0  0  0
 15 17  1  0  0  0  0
 17 18  1  0  0  0  0
 15 19  1  0  0  0  0
 19 20  1  0  0  0  0
  1 21  1  0  0  0  0
  1 22  1  0  0  0  0
  1 23  1  0  0  0  0
  2 24  1  0  0  0  0
  2 25  1  0  0  0  0
  6 26  1  0  0  0  0
  6 27  1  0  0  0  0
 12 28  1  0  0  0  0
 12 29  1  0  0  0  0
 13 30  1  0  0  0  0
 13 31  1  0  0  0  0
 13 32  1  0  0  0  0
 18 33  1  0  0  0  0
 18 34  1  0  0  0  0
 18 35  1  0  0  0  0
 20 36  1  0  0  0  0
 20 37  1  0  0  0  0
 20 38  1  0  0  0  0
M  END
