 xtb: 6.7.1 (edcfbbe)
          04092507313D

 38 37  0     0  0            999 V2000
    4.1503   -3.0672   -2.4088 C   0  0  0  0  0  0  0  0  0  0  0  0
    2.9797   -3.1635   -1.4494 C   0  0  0  0  0  0  0  0  0  0  0  0
    2.6793   -1.8380   -0.9705 O   0  0  0  0  0  0  0  0  0  0  0  0
    2.0387   -1.7131    0.1721 C   0  0  0  0  0  0  0  0  0  0  0  0
    1.6959   -2.6386    0.8735 O   0  0  0  0  0  0  0  0  0  0  0  0
    1.7666   -0.2555    0.5009 C   0  0  0  0  0  0  0  0  0  0  0  0
    0.9674    0.3885   -0.6330 C   0  0  0  0  0  0  0  0  0  0  0  0
    1.5870    0.4646   -1.5302 H   0  0  0  0  0  0  0  0  0  0  0  0
    0.4533    1.7603   -0.2441 C   0  0  0  0  0  0  0  0  0  0  0  0
   -0.7313    2.0353   -0.2432 O   0  0  0  0  0  0  0  0  0  0  0  0
    1.4096    2.5764    0.0860 O   0  0  0  0  0  0  0  0  0  0  0  0
    1.0386    3.9010    0.5337 C   0  0  0  0  0  0  0  0  0  0  0  0
    2.3112    4.6503    0.8710 C   0  0  0  0  0  0  0  0  0  0  0  0
   -0.4629   -0.6192   -1.1409 S   0  0  0  0  0  0  0  0  0  0  0  0
   -1.8572   -0.1967    0.4241 P   0  0  0  0  0  0  0  0  0  0  0  0
   -1.3254    0.4646    2.1902 S   0  0  0  0  0  0  0  0  0  0  0  0
   -3.1387    0.4687   -0.2593 O   0  0  0  0  0  0  0  0  0  0  0  0
   -3.4879    1.8519   -0.3041 C   0  0  0  0  0  0  0  0  0  0  0  0
   -2.4391   -1.6626    0.6564 O   0  0  0  0  0  0  0  0  0  0  0  0
   -3.0144   -2.4640   -0.3872 C   0  0  0  0  0  0  0  0  0  0  0  0
    3.8994   -2.4087   -3.2345 H   0  0  0  0  0  0  0  0  0  0  0  0
    5.0240   -2.6743   -1.8973 H   0  0  0  0  0  0  0  0  0  0  0  0
    4.3775   -4.0552   -2.7949 H   0  0  0  0  0  0  0  0  0  0  0  0
    3.2032   -3.8015   -0.5889 H   0  0  0  0  0  0  0  0  0  0  0  0
    2.0834   -3.5467   -1.9461 H   0  0  0  0  0  0  0  0  0  0  0  0
    2.7120    0.2765    0.6135 H   0  0  0  0  0  0  0  0  0  0  0  0
    1.2127   -0.2176    1.4415 H   0  0  0  0  0  0  0  0  0  0  0  0
    0.4772    4.3881   -0.2686 H   0  0  0  0  0  0  0  0  0  0  0  0
    0.3823    3.7917    1.4024 H   0  0  0  0  0  0  0  0  0  0  0  0
    2.9531    4.7079   -0.0026 H   0  0  0  0  0  0  0  0  0  0  0  0
    2.0574    5.6536    1.1962 H   0  0  0  0  0  0  0  0  0  0  0  0
    2.8443    4.1419    1.6683 H   0  0  0  0  0  0  0  0  0  0  0  0
   -3.1619    2.3538    0.6066 H   0  0  0  0  0  0  0  0  0  0  0  0
   -4.5724    1.8734   -0.3870 H   0  0  0  0  0  0  0  0  0  0  0  0
   -3.0206    2.3212   -1.1674 H   0  0  0  0  0  0  0  0  0  0  0  0
   -2.2989   -2.5884   -1.2009 H   0  0  0  0  0  0  0  0  0  0  0  0
   -3.9240   -1.9942   -0.7570 H   0  0  0  0  0  0  0  0  0  0  0  0
   -3.2334   -3.4217    0.0781 H   0  0  0  0  0  0  0  0  0  0  0  0
  1  2  1  0  0  0  0
  2  3  1  0  0  0  0
  3  4  1  0  0  0  0
  4  5  2  0  0  0  0
  4  6  1  0  0  0  0
  6  7  1  0  0  0  0
  7  8  1  0  0  0  0
  7  9  1  0  0  0  0
  9 10  2  0  0  0  0
  9 11  4  0  0  0  0
 11 12  1  0  0  0  0
 12 13  1  0  0  0  0
  7 14  1  0  0  0  0
 14 15  1  0  0  0  0
 15 16  2  0  0  0  0
 15 17  2  0  0  0  0
 17 18  1  0  0  0  0
 15 19  1  0  0  0  0
 19 20  1  0  0  0  0
  1 21  1  0  0  0  0
  1 22  1  0  0  0  0
  1 23  1  0  0  0  0
  2 24  1  0  0  0  0
  2 25  1  0  0  0  0
  6 26  1  0  0  0  0
  6 27  1  0  0  0  0
 12 28  1  0  0  0  0
 12 29  1  0  0  0  0
 13 30  1  0  0  0  0
 13 31  1  0  0  0  0
 13 32  1  0  0  0  0
 18 33  1  0  0  0  0
 18 34  1  0  0  0  0
 18 35  1  0  0  0  0
 20 36  1  0  0  0  0
 20 37  1  0  0  0  0
 20 38  1  0  0  0  0
M  END
