 xtb: 6.7.1 (edcfbbe)
          04032520243D

 17 17  0     0  0            999 V2000
   -1.6927   -0.0520   -0.5299 C   0  0  0  0  0  0  0  0  0  0  0  0
   -1.0864    1.3052   -0.1530 C   0  0  0  0  0  0  0  0  0  0  0  0
    0.2778    1.1646    0.5458 C   0  0  0  0  0  0  0  0  0  0  0  0
    1.0561   -0.0144    0.0388 C   0  0  0  0  0  0  0  0  0  0  0  0
    2.1937    0.0748   -0.3867 O   0  0  0  0  0  0  0  0  0  0  0  0
    0.3296   -1.3292    0.1277 C   0  0  0  0  0  0  0  0  0  0  0  0
   -1.1639   -1.1530    0.3842 C   0  0  0  0  0  0  0  0  0  0  0  0
   -1.4260   -0.3027   -1.5588 H   0  0  0  0  0  0  0  0  0  0  0  0
   -2.7797    0.0004   -0.4728 H   0  0  0  0  0  0  0  0  0  0  0  0
   -0.9657    1.9110   -1.0514 H   0  0  0  0  0  0  0  0  0  0  0  0
   -1.7574    1.8427    0.5175 H   0  0  0  0  0  0  0  0  0  0  0  0
    0.8686    2.0735    0.4301 H   0  0  0  0  0  0  0  0  0  0  0  0
    0.1203    0.9898    1.6123 H   0  0  0  0  0  0  0  0  0  0  0  0
    0.5064   -1.8737   -0.8027 H   0  0  0  0  0  0  0  0  0  0  0  0
    0.8025   -1.9110    0.9228 H   0  0  0  0  0  0  0  0  0  0  0  0
   -1.6807   -2.0919    0.1846 H   0  0  0  0  0  0  0  0  0  0  0  0
   -1.3466   -0.8862    1.4256 H   0  0  0  0  0  0  0  0  0  0  0  0
  1  2  1  0  0  0  0
  2  3  1  0  0  0  0
  3  4  1  0  0  0  0
  4  5  2  0  0  0  0
  4  6  1  0  0  0  0
  1  7  1  0  0  0  0
  6  7  1  0  0  0  0
  1  8  1  0  0  0  0
  1  9  1  0  0  0  0
  2 10  1  0  0  0  0
  2 11  1  0  0  0  0
  3 12  1  0  0  0  0
  3 13  1  0  0  0  0
  6 14  1  0  0  0  0
  6 15  1  0  0  0  0
  7 16  1  0  0  0  0
  7 17  1  0  0  0  0
M  END
