 xtb: 6.7.1 (edcfbbe)
          04092505213D

 41 40  0     0  0            999 V2000
    4.2903    0.4056   -2.3011 C   0  0  0  0  0  0  0  0  0  0  0  0
    4.5567    0.0272   -0.8580 C   0  0  0  0  0  0  0  0  0  0  0  0
    3.3651   -0.4223   -0.1939 O   0  0  0  0  0  0  0  0  0  0  0  0
    2.1716    0.5814    0.1649 P   0  0  0  0  0  0  0  0  0  0  0  0
    2.7570    2.3632    0.7301 S   0  0  0  0  0  0  0  0  0  0  0  0
    1.3773   -0.2681    1.2357 O   0  0  0  0  0  0  0  0  0  0  0  0
    1.8631   -0.4273    2.5869 C   0  0  0  0  0  0  0  0  0  0  0  0
    0.7663   -1.1010    3.3848 C   0  0  0  0  0  0  0  0  0  0  0  0
    0.8090    0.4935   -1.4390 S   0  0  0  0  0  0  0  0  0  0  0  0
    0.5080   -1.2928   -1.5240 C   0  0  0  0  0  0  0  0  0  0  0  0
   -0.5563   -1.9507   -0.1978 S   0  0  0  0  0  0  0  0  0  0  0  0
   -2.0404   -0.4712   -0.2050 P   0  0  0  0  0  0  0  0  0  0  0  0
   -2.6638    0.2006   -1.9442 S   0  0  0  0  0  0  0  0  0  0  0  0
   -1.4460    0.5786    0.8254 O   0  0  0  0  0  0  0  0  0  0  0  0
   -2.0692    1.8661    1.0321 C   0  0  0  0  0  0  0  0  0  0  0  0
   -1.3414    2.9472    0.2582 C   0  0  0  0  0  0  0  0  0  0  0  0
   -3.1981   -1.1181    0.6744 O   0  0  0  0  0  0  0  0  0  0  0  0
   -4.1928   -2.0039    0.1211 C   0  0  0  0  0  0  0  0  0  0  0  0
   -5.4857   -1.8060    0.8870 C   0  0  0  0  0  0  0  0  0  0  0  0
    3.6107    1.2569   -2.3405 H   0  0  0  0  0  0  0  0  0  0  0  0
    5.2252    0.6805   -2.7787 H   0  0  0  0  0  0  0  0  0  0  0  0
    3.8428   -0.4256   -2.8399 H   0  0  0  0  0  0  0  0  0  0  0  0
    4.9573    0.8834   -0.3060 H   0  0  0  0  0  0  0  0  0  0  0  0
    5.2401   -0.8194   -0.7797 H   0  0  0  0  0  0  0  0  0  0  0  0
    2.7704   -1.0358    2.5566 H   0  0  0  0  0  0  0  0  0  0  0  0
    2.1079    0.5636    2.9842 H   0  0  0  0  0  0  0  0  0  0  0  0
    0.5517   -2.0805    2.9662 H   0  0  0  0  0  0  0  0  0  0  0  0
    1.0862   -1.2072    4.4163 H   0  0  0  0  0  0  0  0  0  0  0  0
   -0.1403   -0.5025    3.3464 H   0  0  0  0  0  0  0  0  0  0  0  0
    1.4480   -1.8355   -1.4574 H   0  0  0  0  0  0  0  0  0  0  0  0
    0.0213   -1.4525   -2.4846 H   0  0  0  0  0  0  0  0  0  0  0  0
   -3.1185    1.8097    0.7294 H   0  0  0  0  0  0  0  0  0  0  0  0
   -2.0067    2.0371    2.1082 H   0  0  0  0  0  0  0  0  0  0  0  0
   -1.7829    3.9118    0.4869 H   0  0  0  0  0  0  0  0  0  0  0  0
   -0.2879    2.9652    0.5313 H   0  0  0  0  0  0  0  0  0  0  0  0
   -1.4183    2.7642   -0.8119 H   0  0  0  0  0  0  0  0  0  0  0  0
   -4.3196   -1.7692   -0.9412 H   0  0  0  0  0  0  0  0  0  0  0  0
   -3.8195   -3.0252    0.2247 H   0  0  0  0  0  0  0  0  0  0  0  0
   -5.8511   -0.7916    0.7522 H   0  0  0  0  0  0  0  0  0  0  0  0
   -6.2285   -2.5044    0.5158 H   0  0  0  0  0  0  0  0  0  0  0  0
   -5.3205   -1.9836    1.9457 H   0  0  0  0  0  0  0  0  0  0  0  0
  1  2  1  0  0  0  0
  2  3  1  0  0  0  0
  3  4  1  0  0  0  0
  4  5  2  0  0  0  0
  4  6  2  0  0  0  0
  6  7  1  0  0  0  0
  7  8  1  0  0  0  0
  4  9  1  0  0  0  0
  9 10  1  0  0  0  0
 10 11  1  0  0  0  0
 11 12  1  0  0  0  0
 12 13  2  0  0  0  0
 12 14  2  0  0  0  0
 14 15  1  0  0  0  0
 15 16  1  0  0  0  0
 12 17  2  0  0  0  0
 17 18  1  0  0  0  0
 18 19  1  0  0  0  0
  1 20  1  0  0  0  0
  1 21  1  0  0  0  0
  1 22  1  0  0  0  0
  2 23  1  0  0  0  0
  2 24  1  0  0  0  0
  7 25  1  0  0  0  0
  7 26  1  0  0  0  0
  8 27  1  0  0  0  0
  8 28  1  0  0  0  0
  8 29  1  0  0  0  0
 10 30  1  0  0  0  0
 10 31  1  0  0  0  0
 15 32  1  0  0  0  0
 15 33  1  0  0  0  0
 16 34  1  0  0  0  0
 16 35  1  0  0  0  0
 16 36  1  0  0  0  0
 18 37  1  0  0  0  0
 18 38  1  0  0  0  0
 19 39  1  0  0  0  0
 19 40  1  0  0  0  0
 19 41  1  0  0  0  0
M  END
