 xtb: 6.7.1 (edcfbbe)
          04092505203D

 41 40  0     0  0            999 V2000
    2.9188    2.1594   -1.6760 C   0  0  0  0  0  0  0  0  0  0  0  0
    2.0449    0.9233   -1.6910 C   0  0  0  0  0  0  0  0  0  0  0  0
    1.3177    0.8029   -0.4381 O   0  0  0  0  0  0  0  0  0  0  0  0
    1.7997   -0.1431    0.7363 P   0  0  0  0  0  0  0  0  0  0  0  0
    0.9150    0.3138    2.4213 S   0  0  0  0  0  0  0  0  0  0  0  0
    3.3737    0.0703    0.7188 O   0  0  0  0  0  0  0  0  0  0  0  0
    4.3389   -0.8644    1.2382 C   0  0  0  0  0  0  0  0  0  0  0  0
    4.0529   -1.2792    2.6656 C   0  0  0  0  0  0  0  0  0  0  0  0
    1.6284   -2.1318   -0.0277 S   0  0  0  0  0  0  0  0  0  0  0  0
   -0.0460   -2.0932   -0.7230 C   0  0  0  0  0  0  0  0  0  0  0  0
   -1.3426   -1.5499    0.4356 S   0  0  0  0  0  0  0  0  0  0  0  0
   -1.9039    0.2696   -0.4698 P   0  0  0  0  0  0  0  0  0  0  0  0
   -1.3962    0.5455   -2.3449 S   0  0  0  0  0  0  0  0  0  0  0  0
   -1.3786    1.3230    0.5827 O   0  0  0  0  0  0  0  0  0  0  0  0
   -1.1750    2.7123    0.2659 C   0  0  0  0  0  0  0  0  0  0  0  0
   -2.4813    3.4388    0.0261 C   0  0  0  0  0  0  0  0  0  0  0  0
   -3.4723    0.3429   -0.2088 O   0  0  0  0  0  0  0  0  0  0  0  0
   -4.4416   -0.1882   -1.1291 C   0  0  0  0  0  0  0  0  0  0  0  0
   -4.3925   -1.7000   -1.2165 C   0  0  0  0  0  0  0  0  0  0  0  0
    3.6645    2.0832   -0.8890 H   0  0  0  0  0  0  0  0  0  0  0  0
    3.4144    2.2511   -2.6374 H   0  0  0  0  0  0  0  0  0  0  0  0
    2.3135    3.0446   -1.4996 H   0  0  0  0  0  0  0  0  0  0  0  0
    2.6390    0.0196   -1.8467 H   0  0  0  0  0  0  0  0  0  0  0  0
    1.2701    0.9918   -2.4587 H   0  0  0  0  0  0  0  0  0  0  0  0
    4.3540   -1.7378    0.5801 H   0  0  0  0  0  0  0  0  0  0  0  0
    5.2842   -0.3242    1.1620 H   0  0  0  0  0  0  0  0  0  0  0  0
    3.9784   -0.4054    3.3087 H   0  0  0  0  0  0  0  0  0  0  0  0
    3.1101   -1.8227    2.7164 H   0  0  0  0  0  0  0  0  0  0  0  0
    4.8518   -1.9223    3.0204 H   0  0  0  0  0  0  0  0  0  0  0  0
   -0.2582   -3.1254   -0.9920 H   0  0  0  0  0  0  0  0  0  0  0  0
   -0.0721   -1.4456   -1.6036 H   0  0  0  0  0  0  0  0  0  0  0  0
   -0.6436    3.0978    1.1380 H   0  0  0  0  0  0  0  0  0  0  0  0
   -0.5262    2.7712   -0.6142 H   0  0  0  0  0  0  0  0  0  0  0  0
   -2.2836    4.4990   -0.0979 H   0  0  0  0  0  0  0  0  0  0  0  0
   -2.9589    3.0585   -0.8763 H   0  0  0  0  0  0  0  0  0  0  0  0
   -3.1514    3.2902    0.8690 H   0  0  0  0  0  0  0  0  0  0  0  0
   -5.3953    0.1615   -0.7314 H   0  0  0  0  0  0  0  0  0  0  0  0
   -4.2624    0.2583   -2.1128 H   0  0  0  0  0  0  0  0  0  0  0  0
   -4.4500   -2.1383   -0.2233 H   0  0  0  0  0  0  0  0  0  0  0  0
   -5.2278   -2.0498   -1.8147 H   0  0  0  0  0  0  0  0  0  0  0  0
   -3.4632   -2.0177   -1.6874 H   0  0  0  0  0  0  0  0  0  0  0  0
  1  2  1  0  0  0  0
  2  3  1  0  0  0  0
  3  4  2  0  0  0  0
  4  5  2  0  0  0  0
  4  6  2  0  0  0  0
  6  7  1  0  0  0  0
  7  8  1  0  0  0  0
  4  9  1  0  0  0  0
  9 10  1  0  0  0  0
 10 11  1  0  0  0  0
 11 12  1  0  0  0  0
 12 13  2  0  0  0  0
 12 14  2  0  0  0  0
 14 15  1  0  0  0  0
 15 16  1  0  0  0  0
 12 17  2  0  0  0  0
 17 18  1  0  0  0  0
 18 19  1  0  0  0  0
  1 20  1  0  0  0  0
  1 21  1  0  0  0  0
  1 22  1  0  0  0  0
  2 23  1  0  0  0  0
  2 24  1  0  0  0  0
  7 25  1  0  0  0  0
  7 26  1  0  0  0  0
  8 27  1  0  0  0  0
  8 28  1  0  0  0  0
  8 29  1  0  0  0  0
 10 30  1  0  0  0  0
 10 31  1  0  0  0  0
 15 32  1  0  0  0  0
 15 33  1  0  0  0  0
 16 34  1  0  0  0  0
 16 35  1  0  0  0  0
 16 36  1  0  0  0  0
 18 37  1  0  0  0  0
 18 38  1  0  0  0  0
 19 39  1  0  0  0  0
 19 40  1  0  0  0  0
 19 41  1  0  0  0  0
M  END
