 xtb: 6.7.1 (edcfbbe)
          04092505213D

 41 40  0     0  0            999 V2000
    5.8845   -0.2158   -0.9331 C   0  0  0  0  0  0  0  0  0  0  0  0
    4.5562    0.5088   -0.8592 C   0  0  0  0  0  0  0  0  0  0  0  0
    3.5832   -0.4041   -0.3083 O   0  0  0  0  0  0  0  0  0  0  0  0
    2.2090    0.1262    0.2882 P   0  0  0  0  0  0  0  0  0  0  0  0
    2.3663    1.5570    1.6095 S   0  0  0  0  0  0  0  0  0  0  0  0
    1.5777   -1.1940    0.8698 O   0  0  0  0  0  0  0  0  0  0  0  0
    1.6074   -2.4555    0.1467 C   0  0  0  0  0  0  0  0  0  0  0  0
    0.7837   -3.4553    0.9282 C   0  0  0  0  0  0  0  0  0  0  0  0
    1.1166    0.6199   -1.4779 S   0  0  0  0  0  0  0  0  0  0  0  0
   -0.0603    1.7606   -0.6941 C   0  0  0  0  0  0  0  0  0  0  0  0
   -0.9442    1.0515    0.7169 S   0  0  0  0  0  0  0  0  0  0  0  0
   -2.3377   -0.1486   -0.3785 P   0  0  0  0  0  0  0  0  0  0  0  0
   -1.6230   -1.6294   -1.4332 S   0  0  0  0  0  0  0  0  0  0  0  0
   -3.1578    0.8571   -1.2758 O   0  0  0  0  0  0  0  0  0  0  0  0
   -4.1153    1.8311   -0.7817 C   0  0  0  0  0  0  0  0  0  0  0  0
   -3.4927    3.2076   -0.6574 C   0  0  0  0  0  0  0  0  0  0  0  0
   -3.3921   -0.5658    0.7364 O   0  0  0  0  0  0  0  0  0  0  0  0
   -3.2171   -1.7291    1.5632 C   0  0  0  0  0  0  0  0  0  0  0  0
   -2.2278   -1.4806    2.6843 C   0  0  0  0  0  0  0  0  0  0  0  0
    6.1973   -0.5224    0.0610 H   0  0  0  0  0  0  0  0  0  0  0  0
    5.7936   -1.0964   -1.5624 H   0  0  0  0  0  0  0  0  0  0  0  0
    6.6297    0.4514   -1.3534 H   0  0  0  0  0  0  0  0  0  0  0  0
    4.2106    0.8151   -1.8501 H   0  0  0  0  0  0  0  0  0  0  0  0
    4.6134    1.3885   -0.2097 H   0  0  0  0  0  0  0  0  0  0  0  0
    1.1912   -2.2951   -0.8525 H   0  0  0  0  0  0  0  0  0  0  0  0
    2.6493   -2.7673    0.0626 H   0  0  0  0  0  0  0  0  0  0  0  0
   -0.2649   -3.1724    0.9081 H   0  0  0  0  0  0  0  0  0  0  0  0
    0.8910   -4.4328    0.4695 H   0  0  0  0  0  0  0  0  0  0  0  0
    1.1248   -3.4960    1.9586 H   0  0  0  0  0  0  0  0  0  0  0  0
   -0.7634    2.0545   -1.4706 H   0  0  0  0  0  0  0  0  0  0  0  0
    0.4860    2.6175   -0.3018 H   0  0  0  0  0  0  0  0  0  0  0  0
   -4.9059    1.8225   -1.5338 H   0  0  0  0  0  0  0  0  0  0  0  0
   -4.5108    1.4850    0.1736 H   0  0  0  0  0  0  0  0  0  0  0  0
   -2.7289    3.2201    0.1163 H   0  0  0  0  0  0  0  0  0  0  0  0
   -3.0489    3.5080   -1.6031 H   0  0  0  0  0  0  0  0  0  0  0  0
   -4.2696    3.9182   -0.3928 H   0  0  0  0  0  0  0  0  0  0  0  0
   -4.2167   -1.9297    1.9518 H   0  0  0  0  0  0  0  0  0  0  0  0
   -2.8946   -2.5608    0.9277 H   0  0  0  0  0  0  0  0  0  0  0  0
   -2.5259   -0.6112    3.2645 H   0  0  0  0  0  0  0  0  0  0  0  0
   -2.1943   -2.3509    3.3319 H   0  0  0  0  0  0  0  0  0  0  0  0
   -1.2306   -1.3008    2.2842 H   0  0  0  0  0  0  0  0  0  0  0  0
  1  2  1  0  0  0  0
  2  3  1  0  0  0  0
  3  4  2  0  0  0  0
  4  5  2  0  0  0  0
  4  6  2  0  0  0  0
  6  7  1  0  0  0  0
  7  8  1  0  0  0  0
  4  9  1  0  0  0  0
  9 10  1  0  0  0  0
 10 11  1  0  0  0  0
 11 12  1  0  0  0  0
 12 13  2  0  0  0  0
 12 14  2  0  0  0  0
 14 15  1  0  0  0  0
 15 16  1  0  0  0  0
 12 17  2  0  0  0  0
 17 18  1  0  0  0  0
 18 19  1  0  0  0  0
  1 20  1  0  0  0  0
  1 21  1  0  0  0  0
  1 22  1  0  0  0  0
  2 23  1  0  0  0  0
  2 24  1  0  0  0  0
  7 25  1  0  0  0  0
  7 26  1  0  0  0  0
  8 27  1  0  0  0  0
  8 28  1  0  0  0  0
  8 29  1  0  0  0  0
 10 30  1  0  0  0  0
 10 31  1  0  0  0  0
 15 32  1  0  0  0  0
 15 33  1  0  0  0  0
 16 34  1  0  0  0  0
 16 35  1  0  0  0  0
 16 36  1  0  0  0  0
 18 37  1  0  0  0  0
 18 38  1  0  0  0  0
 19 39  1  0  0  0  0
 19 40  1  0  0  0  0
 19 41  1  0  0  0  0
M  END
