 xtb: 6.7.1 (edcfbbe)
          04092505213D

 41 40  0     0  0            999 V2000
    3.2336   -0.8713   -3.1652 C   0  0  0  0  0  0  0  0  0  0  0  0
    4.0934   -0.7362   -1.9267 C   0  0  0  0  0  0  0  0  0  0  0  0
    3.5584    0.2011   -0.9715 O   0  0  0  0  0  0  0  0  0  0  0  0
    2.0724    0.1970   -0.4092 P   0  0  0  0  0  0  0  0  0  0  0  0
    0.7110    1.0099   -1.5592 S   0  0  0  0  0  0  0  0  0  0  0  0
    2.2247    1.0671    0.8942 O   0  0  0  0  0  0  0  0  0  0  0  0
    3.2276    0.8833    1.9240 C   0  0  0  0  0  0  0  0  0  0  0  0
    2.6748    0.0811    3.0862 C   0  0  0  0  0  0  0  0  0  0  0  0
    1.8532   -1.8475    0.1550 S   0  0  0  0  0  0  0  0  0  0  0  0
    0.2019   -1.8349    0.8964 C   0  0  0  0  0  0  0  0  0  0  0  0
   -1.1370   -1.6056   -0.3164 S   0  0  0  0  0  0  0  0  0  0  0  0
   -1.9520    0.1936    0.4287 P   0  0  0  0  0  0  0  0  0  0  0  0
   -0.9245    1.1987    1.7532 S   0  0  0  0  0  0  0  0  0  0  0  0
   -3.3000   -0.4460    1.0238 O   0  0  0  0  0  0  0  0  0  0  0  0
   -4.0475    0.1793    2.0821 C   0  0  0  0  0  0  0  0  0  0  0  0
   -4.7884    1.4117    1.6026 C   0  0  0  0  0  0  0  0  0  0  0  0
   -2.3987    1.0956   -0.7924 O   0  0  0  0  0  0  0  0  0  0  0  0
   -3.3378    0.6891   -1.8159 C   0  0  0  0  0  0  0  0  0  0  0  0
   -2.6427   -0.0036   -2.9709 C   0  0  0  0  0  0  0  0  0  0  0  0
    3.0745    0.1015   -3.6248 H   0  0  0  0  0  0  0  0  0  0  0  0
    3.7241   -1.5304   -3.8741 H   0  0  0  0  0  0  0  0  0  0  0  0
    2.2619   -1.2889   -2.9044 H   0  0  0  0  0  0  0  0  0  0  0  0
    5.0754   -0.3235   -2.1652 H   0  0  0  0  0  0  0  0  0  0  0  0
    4.2055   -1.7019   -1.4264 H   0  0  0  0  0  0  0  0  0  0  0  0
    4.1066    0.4077    1.4849 H   0  0  0  0  0  0  0  0  0  0  0  0
    3.4721    1.9012    2.2317 H   0  0  0  0  0  0  0  0  0  0  0  0
    2.5451   -0.9632    2.8125 H   0  0  0  0  0  0  0  0  0  0  0  0
    3.3679    0.1434    3.9190 H   0  0  0  0  0  0  0  0  0  0  0  0
    1.7148    0.4938    3.3904 H   0  0  0  0  0  0  0  0  0  0  0  0
    0.1368   -1.0358    1.6398 H   0  0  0  0  0  0  0  0  0  0  0  0
    0.0816   -2.8152    1.3499 H   0  0  0  0  0  0  0  0  0  0  0  0
   -4.7317   -0.6011    2.4179 H   0  0  0  0  0  0  0  0  0  0  0  0
   -3.3535    0.4398    2.8876 H   0  0  0  0  0  0  0  0  0  0  0  0
   -5.3598    1.8294    2.4256 H   0  0  0  0  0  0  0  0  0  0  0  0
   -4.0749    2.1586    1.2542 H   0  0  0  0  0  0  0  0  0  0  0  0
   -5.4629    1.1606    0.7879 H   0  0  0  0  0  0  0  0  0  0  0  0
   -4.0965    0.0443   -1.3642 H   0  0  0  0  0  0  0  0  0  0  0  0
   -3.7870    1.6310   -2.1359 H   0  0  0  0  0  0  0  0  0  0  0  0
   -3.3356   -0.0911   -3.8016 H   0  0  0  0  0  0  0  0  0  0  0  0
   -1.7771    0.5783   -3.2799 H   0  0  0  0  0  0  0  0  0  0  0  0
   -2.3045   -0.9963   -2.6824 H   0  0  0  0  0  0  0  0  0  0  0  0
  1  2  1  0  0  0  0
  2  3  1  0  0  0  0
  3  4  2  0  0  0  0
  4  5  2  0  0  0  0
  4  6  2  0  0  0  0
  6  7  1  0  0  0  0
  7  8  1  0  0  0  0
  4  9  1  0  0  0  0
  9 10  1  0  0  0  0
 10 11  1  0  0  0  0
 11 12  1  0  0  0  0
 12 13  2  0  0  0  0
 12 14  1  0  0  0  0
 14 15  1  0  0  0  0
 15 16  1  0  0  0  0
 12 17  2  0  0  0  0
 17 18  1  0  0  0  0
 18 19  1  0  0  0  0
  1 20  1  0  0  0  0
  1 21  1  0  0  0  0
  1 22  1  0  0  0  0
  2 23  1  0  0  0  0
  2 24  1  0  0  0  0
  7 25  1  0  0  0  0
  7 26  1  0  0  0  0
  8 27  1  0  0  0  0
  8 28  1  0  0  0  0
  8 29  1  0  0  0  0
 10 30  1  0  0  0  0
 10 31  1  0  0  0  0
 15 32  1  0  0  0  0
 15 33  1  0  0  0  0
 16 34  1  0  0  0  0
 16 35  1  0  0  0  0
 16 36  1  0  0  0  0
 18 37  1  0  0  0  0
 18 38  1  0  0  0  0
 19 39  1  0  0  0  0
 19 40  1  0  0  0  0
 19 41  1  0  0  0  0
M  END
