 xtb: 6.7.1 (edcfbbe)
          04092505203D

 41 40  0     0  0            999 V2000
    4.4177   -0.2493   -2.0019 C   0  0  0  0  0  0  0  0  0  0  0  0
    4.3875    0.8497   -0.9590 C   0  0  0  0  0  0  0  0  0  0  0  0
    3.6131    0.4867    0.1951 O   0  0  0  0  0  0  0  0  0  0  0  0
    2.0376    0.2863    0.1478 P   0  0  0  0  0  0  0  0  0  0  0  0
    1.0890    1.5870   -0.9749 S   0  0  0  0  0  0  0  0  0  0  0  0
    1.6271    0.4314    1.6633 O   0  0  0  0  0  0  0  0  0  0  0  0
    1.8309   -0.5505    2.7134 C   0  0  0  0  0  0  0  0  0  0  0  0
    3.2758   -0.9763    2.8489 C   0  0  0  0  0  0  0  0  0  0  0  0
    1.7919   -1.7665   -0.3514 S   0  0  0  0  0  0  0  0  0  0  0  0
    0.0454   -1.7184   -0.8057 C   0  0  0  0  0  0  0  0  0  0  0  0
   -1.0106   -1.1589    0.5664 S   0  0  0  0  0  0  0  0  0  0  0  0
   -2.2041    0.3143   -0.4103 P   0  0  0  0  0  0  0  0  0  0  0  0
   -2.0508    0.3297   -2.3627 S   0  0  0  0  0  0  0  0  0  0  0  0
   -1.9133    1.7455    0.1781 O   0  0  0  0  0  0  0  0  0  0  0  0
   -2.3106    2.2369    1.4804 C   0  0  0  0  0  0  0  0  0  0  0  0
   -1.6217    1.5017    2.6109 C   0  0  0  0  0  0  0  0  0  0  0  0
   -3.6456    0.0389    0.2095 O   0  0  0  0  0  0  0  0  0  0  0  0
   -4.3164   -1.2337    0.2453 C   0  0  0  0  0  0  0  0  0  0  0  0
   -4.6266   -1.7743   -1.1352 C   0  0  0  0  0  0  0  0  0  0  0  0
    4.7176   -1.1921   -1.5515 H   0  0  0  0  0  0  0  0  0  0  0  0
    3.4306   -0.3684   -2.4465 H   0  0  0  0  0  0  0  0  0  0  0  0
    5.1218    0.0179   -2.7834 H   0  0  0  0  0  0  0  0  0  0  0  0
    3.9689    1.7687   -1.3820 H   0  0  0  0  0  0  0  0  0  0  0  0
    5.3807    1.0471   -0.5532 H   0  0  0  0  0  0  0  0  0  0  0  0
    1.4780   -0.0333    3.6067 H   0  0  0  0  0  0  0  0  0  0  0  0
    1.1834   -1.4070    2.5043 H   0  0  0  0  0  0  0  0  0  0  0  0
    3.9143   -0.1066    2.9795 H   0  0  0  0  0  0  0  0  0  0  0  0
    3.3709   -1.6264    3.7131 H   0  0  0  0  0  0  0  0  0  0  0  0
    3.5961   -1.5177    1.9612 H   0  0  0  0  0  0  0  0  0  0  0  0
   -0.2252   -2.7393   -1.0638 H   0  0  0  0  0  0  0  0  0  0  0  0
   -0.1129   -1.0420   -1.6512 H   0  0  0  0  0  0  0  0  0  0  0  0
   -2.0136    3.2866    1.4461 H   0  0  0  0  0  0  0  0  0  0  0  0
   -3.3966    2.1581    1.5583 H   0  0  0  0  0  0  0  0  0  0  0  0
   -1.9550    0.4659    2.6520 H   0  0  0  0  0  0  0  0  0  0  0  0
   -0.5441    1.5197    2.4620 H   0  0  0  0  0  0  0  0  0  0  0  0
   -1.8622    1.9904    3.5498 H   0  0  0  0  0  0  0  0  0  0  0  0
   -3.6941   -1.9362    0.8071 H   0  0  0  0  0  0  0  0  0  0  0  0
   -5.2308   -1.0220    0.8027 H   0  0  0  0  0  0  0  0  0  0  0  0
   -5.1926   -1.0446   -1.7089 H   0  0  0  0  0  0  0  0  0  0  0  0
   -3.7062   -1.9896   -1.6748 H   0  0  0  0  0  0  0  0  0  0  0  0
   -5.2066   -2.6867   -1.0406 H   0  0  0  0  0  0  0  0  0  0  0  0
  1  2  1  0  0  0  0
  2  3  1  0  0  0  0
  3  4  2  0  0  0  0
  4  5  2  0  0  0  0
  4  6  2  0  0  0  0
  6  7  1  0  0  0  0
  7  8  1  0  0  0  0
  4  9  1  0  0  0  0
  9 10  1  0  0  0  0
 10 11  1  0  0  0  0
 11 12  1  0  0  0  0
 12 13  2  0  0  0  0
 12 14  2  0  0  0  0
 14 15  1  0  0  0  0
 15 16  1  0  0  0  0
 12 17  2  0  0  0  0
 17 18  1  0  0  0  0
 18 19  1  0  0  0  0
  1 20  1  0  0  0  0
  1 21  1  0  0  0  0
  1 22  1  0  0  0  0
  2 23  1  0  0  0  0
  2 24  1  0  0  0  0
  7 25  1  0  0  0  0
  7 26  1  0  0  0  0
  8 27  1  0  0  0  0
  8 28  1  0  0  0  0
  8 29  1  0  0  0  0
 10 30  1  0  0  0  0
 10 31  1  0  0  0  0
 15 32  1  0  0  0  0
 15 33  1  0  0  0  0
 16 34  1  0  0  0  0
 16 35  1  0  0  0  0
 16 36  1  0  0  0  0
 18 37  1  0  0  0  0
 18 38  1  0  0  0  0
 19 39  1  0  0  0  0
 19 40  1  0  0  0  0
 19 41  1  0  0  0  0
M  END
