 xtb: 6.7.1 (edcfbbe)
          04032519423D

 20 20  0     0  0            999 V2000
    0.8548    1.4096   -0.5850 C   0  0  0  0  0  0  0  0  0  0  0  0
    1.5870    0.1693   -0.0423 C   0  0  0  0  0  0  0  0  0  0  0  0
    2.5544    0.0852   -0.5497 H   0  0  0  0  0  0  0  0  0  0  0  0
    0.7682   -1.1113   -0.3173 C   0  0  0  0  0  0  0  0  0  0  0  0
    1.1823   -1.9174    0.2992 H   0  0  0  0  0  0  0  0  0  0  0  0
   -0.6958   -0.9031    0.1184 C   0  0  0  0  0  0  0  0  0  0  0  0
   -1.3035   -1.7425   -0.2523 H   0  0  0  0  0  0  0  0  0  0  0  0
   -1.2649    0.4007   -0.4710 C   0  0  0  0  0  0  0  0  0  0  0  0
   -1.2991    0.3197   -1.5792 H   0  0  0  0  0  0  0  0  0  0  0  0
   -0.4747    1.5094   -0.1127 O   0  0  0  0  0  0  0  0  0  0  0  0
   -2.5318    0.5819    0.0526 O   0  0  0  0  0  0  0  0  0  0  0  0
   -0.7240   -0.8468    1.5224 O   0  0  0  0  0  0  0  0  0  0  0  0
    0.8749   -1.5619   -1.6418 O   0  0  0  0  0  0  0  0  0  0  0  0
    1.8810    0.2989    1.3249 O   0  0  0  0  0  0  0  0  0  0  0  0
    0.8557    1.3953   -1.6839 H   0  0  0  0  0  0  0  0  0  0  0  0
    1.3532    2.3115   -0.2298 H   0  0  0  0  0  0  0  0  0  0  0  0
   -2.8137    1.4995   -0.0864 H   0  0  0  0  0  0  0  0  0  0  0  0
   -1.6113   -0.5622    1.7951 H   0  0  0  0  0  0  0  0  0  0  0  0
    0.6101   -0.8698   -2.2633 H   0  0  0  0  0  0  0  0  0  0  0  0
    1.0556    0.1903    1.8281 H   0  0  0  0  0  0  0  0  0  0  0  0
  1  2  1  0  0  0  0
  2  3  1  0  0  0  0
  2  4  1  0  0  0  0
  4  5  1  0  0  0  0
  4  6  1  0  0  0  0
  6  7  1  0  0  0  0
  6  8  1  0  0  0  0
  8  9  1  0  0  0  0
  1 10  1  0  0  0  0
  8 10  1  0  0  0  0
  8 11  1  0  0  0  0
  6 12  1  0  0  0  0
  4 13  1  0  0  0  0
  2 14  1  0  0  0  0
  1 15  1  0  0  0  0
  1 16  1  0  0  0  0
 11 17  1  0  0  0  0
 12 18  1  0  0  0  0
 13 19  1  0  0  0  0
 14 20  1  0  0  0  0
M  END
