 xtb: 6.7.1 (edcfbbe)
          04092505203D

 41 40  0     0  0            999 V2000
    1.3027   -0.1095   -3.2012 C   0  0  0  0  0  0  0  0  0  0  0  0
    2.3809    0.4639   -2.3026 C   0  0  0  0  0  0  0  0  0  0  0  0
    2.7761   -0.5055   -1.3194 O   0  0  0  0  0  0  0  0  0  0  0  0
    2.4056   -0.4295    0.2165 P   0  0  0  0  0  0  0  0  0  0  0  0
    2.5495    1.3557    1.0284 S   0  0  0  0  0  0  0  0  0  0  0  0
    3.4766   -1.5118    0.6515 O   0  0  0  0  0  0  0  0  0  0  0  0
    3.4143   -2.2836    1.8637 C   0  0  0  0  0  0  0  0  0  0  0  0
    3.5091   -1.4221    3.1074 C   0  0  0  0  0  0  0  0  0  0  0  0
    0.5417   -1.4208    0.4518 S   0  0  0  0  0  0  0  0  0  0  0  0
   -0.2591   -0.3148    1.6707 C   0  0  0  0  0  0  0  0  0  0  0  0
   -2.0372   -0.2168    1.4194 S   0  0  0  0  0  0  0  0  0  0  0  0
   -2.0123    0.6824   -0.5134 P   0  0  0  0  0  0  0  0  0  0  0  0
   -0.5826    1.9828   -0.8343 S   0  0  0  0  0  0  0  0  0  0  0  0
   -3.5167    1.1649   -0.6873 O   0  0  0  0  0  0  0  0  0  0  0  0
   -4.2693    1.9198    0.2807 C   0  0  0  0  0  0  0  0  0  0  0  0
   -3.5738    3.1994    0.6949 C   0  0  0  0  0  0  0  0  0  0  0  0
   -1.9299   -0.4549   -1.6023 O   0  0  0  0  0  0  0  0  0  0  0  0
   -2.8820   -1.5409   -1.7433 C   0  0  0  0  0  0  0  0  0  0  0  0
   -2.3422   -2.8179   -1.1305 C   0  0  0  0  0  0  0  0  0  0  0  0
    1.6341   -1.0558   -3.6189 H   0  0  0  0  0  0  0  0  0  0  0  0
    0.3841   -0.2695   -2.6400 H   0  0  0  0  0  0  0  0  0  0  0  0
    1.0999    0.5932   -4.0031 H   0  0  0  0  0  0  0  0  0  0  0  0
    2.0379    1.3780   -1.8046 H   0  0  0  0  0  0  0  0  0  0  0  0
    3.2889    0.6840   -2.8680 H   0  0  0  0  0  0  0  0  0  0  0  0
    2.4868   -2.8645    1.8595 H   0  0  0  0  0  0  0  0  0  0  0  0
    4.2690   -2.9573    1.7813 H   0  0  0  0  0  0  0  0  0  0  0  0
    3.5245   -2.0577    3.9868 H   0  0  0  0  0  0  0  0  0  0  0  0
    4.4144   -0.8207    3.0805 H   0  0  0  0  0  0  0  0  0  0  0  0
    2.6564   -0.7470    3.1667 H   0  0  0  0  0  0  0  0  0  0  0  0
    0.1909    0.6782    1.5747 H   0  0  0  0  0  0  0  0  0  0  0  0
   -0.1213   -0.7193    2.6705 H   0  0  0  0  0  0  0  0  0  0  0  0
   -5.2103    2.1263   -0.2324 H   0  0  0  0  0  0  0  0  0  0  0  0
   -4.4495    1.2791    1.1483 H   0  0  0  0  0  0  0  0  0  0  0  0
   -3.3396    3.8045   -0.1780 H   0  0  0  0  0  0  0  0  0  0  0  0
   -4.2196    3.7629    1.3605 H   0  0  0  0  0  0  0  0  0  0  0  0
   -2.6428    2.9724    1.2129 H   0  0  0  0  0  0  0  0  0  0  0  0
   -3.8285   -1.2465   -1.2869 H   0  0  0  0  0  0  0  0  0  0  0  0
   -3.0109   -1.6433   -2.8220 H   0  0  0  0  0  0  0  0  0  0  0  0
   -1.3652   -3.0500   -1.5457 H   0  0  0  0  0  0  0  0  0  0  0  0
   -2.2429   -2.7197   -0.0524 H   0  0  0  0  0  0  0  0  0  0  0  0
   -3.0276   -3.6298   -1.3516 H   0  0  0  0  0  0  0  0  0  0  0  0
  1  2  1  0  0  0  0
  2  3  1  0  0  0  0
  3  4  2  0  0  0  0
  4  5  2  0  0  0  0
  4  6  2  0  0  0  0
  6  7  1  0  0  0  0
  7  8  1  0  0  0  0
  4  9  1  0  0  0  0
  9 10  1  0  0  0  0
 10 11  1  0  0  0  0
 11 12  1  0  0  0  0
 12 13  2  0  0  0  0
 12 14  2  0  0  0  0
 14 15  1  0  0  0  0
 15 16  1  0  0  0  0
 12 17  2  0  0  0  0
 17 18  1  0  0  0  0
 18 19  1  0  0  0  0
  1 20  1  0  0  0  0
  1 21  1  0  0  0  0
  1 22  1  0  0  0  0
  2 23  1  0  0  0  0
  2 24  1  0  0  0  0
  7 25  1  0  0  0  0
  7 26  1  0  0  0  0
  8 27  1  0  0  0  0
  8 28  1  0  0  0  0
  8 29  1  0  0  0  0
 10 30  1  0  0  0  0
 10 31  1  0  0  0  0
 15 32  1  0  0  0  0
 15 33  1  0  0  0  0
 16 34  1  0  0  0  0
 16 35  1  0  0  0  0
 16 36  1  0  0  0  0
 18 37  1  0  0  0  0
 18 38  1  0  0  0  0
 19 39  1  0  0  0  0
 19 40  1  0  0  0  0
 19 41  1  0  0  0  0
M  END
