 xtb: 6.7.1 (edcfbbe)
          04092505203D

 41 40  0     0  0            999 V2000
    3.2272   -0.7905   -2.5428 C   0  0  0  0  0  0  0  0  0  0  0  0
    3.2305    0.6763   -2.1702 C   0  0  0  0  0  0  0  0  0  0  0  0
    2.1814    1.0098   -1.2299 O   0  0  0  0  0  0  0  0  0  0  0  0
    2.0421    0.4497    0.2329 P   0  0  0  0  0  0  0  0  0  0  0  0
    0.9560    1.5969    1.3874 S   0  0  0  0  0  0  0  0  0  0  0  0
    3.5765    0.3642    0.6672 O   0  0  0  0  0  0  0  0  0  0  0  0
    4.0112    0.3178    2.0357 C   0  0  0  0  0  0  0  0  0  0  0  0
    3.6049   -0.9639    2.7345 C   0  0  0  0  0  0  0  0  0  0  0  0
    1.4091   -1.5874    0.0999 S   0  0  0  0  0  0  0  0  0  0  0  0
    0.0730   -1.6108    1.3290 C   0  0  0  0  0  0  0  0  0  0  0  0
   -1.5623   -2.0048    0.6372 S   0  0  0  0  0  0  0  0  0  0  0  0
   -2.0449   -0.1958   -0.3044 P   0  0  0  0  0  0  0  0  0  0  0  0
   -0.8540    0.5267   -1.6958 S   0  0  0  0  0  0  0  0  0  0  0  0
   -2.3164    0.7193    0.9534 O   0  0  0  0  0  0  0  0  0  0  0  0
   -2.5824    2.1338    0.8253 C   0  0  0  0  0  0  0  0  0  0  0  0
   -2.4675    2.7508    2.2025 C   0  0  0  0  0  0  0  0  0  0  0  0
   -3.5170   -0.4649   -0.8406 O   0  0  0  0  0  0  0  0  0  0  0  0
   -3.7863   -1.0870   -2.1129 C   0  0  0  0  0  0  0  0  0  0  0  0
   -5.1123   -0.5619   -2.6259 C   0  0  0  0  0  0  0  0  0  0  0  0
    3.4829   -1.4020   -1.6786 H   0  0  0  0  0  0  0  0  0  0  0  0
    2.2425   -1.0830   -2.9004 H   0  0  0  0  0  0  0  0  0  0  0  0
    3.9584   -0.9601   -3.3269 H   0  0  0  0  0  0  0  0  0  0  0  0
    2.9982    1.3088   -3.0284 H   0  0  0  0  0  0  0  0  0  0  0  0
    4.1867    0.9708   -1.7327 H   0  0  0  0  0  0  0  0  0  0  0  0
    5.0961    0.4084    1.9632 H   0  0  0  0  0  0  0  0  0  0  0  0
    3.6000    1.1876    2.5578 H   0  0  0  0  0  0  0  0  0  0  0  0
    3.8977   -1.8278    2.1434 H   0  0  0  0  0  0  0  0  0  0  0  0
    4.0905   -1.0088    3.7040 H   0  0  0  0  0  0  0  0  0  0  0  0
    2.5263   -0.9824    2.8813 H   0  0  0  0  0  0  0  0  0  0  0  0
    0.0272   -0.6362    1.8231 H   0  0  0  0  0  0  0  0  0  0  0  0
    0.2805   -2.4118    2.0336 H   0  0  0  0  0  0  0  0  0  0  0  0
   -1.8516    2.5636    0.1315 H   0  0  0  0  0  0  0  0  0  0  0  0
   -3.5860    2.2515    0.4100 H   0  0  0  0  0  0  0  0  0  0  0  0
   -2.7141    3.8056    2.1412 H   0  0  0  0  0  0  0  0  0  0  0  0
   -3.1489    2.2552    2.8874 H   0  0  0  0  0  0  0  0  0  0  0  0
   -1.4499    2.6415    2.5706 H   0  0  0  0  0  0  0  0  0  0  0  0
   -2.9675   -0.8463   -2.7996 H   0  0  0  0  0  0  0  0  0  0  0  0
   -3.8193   -2.1673   -1.9534 H   0  0  0  0  0  0  0  0  0  0  0  0
   -5.0516    0.5097   -2.7953 H   0  0  0  0  0  0  0  0  0  0  0  0
   -5.3527   -1.0582   -3.5603 H   0  0  0  0  0  0  0  0  0  0  0  0
   -5.8946   -0.7610   -1.8993 H   0  0  0  0  0  0  0  0  0  0  0  0
  1  2  1  0  0  0  0
  2  3  1  0  0  0  0
  3  4  2  0  0  0  0
  4  5  2  0  0  0  0
  4  6  2  0  0  0  0
  6  7  1  0  0  0  0
  7  8  1  0  0  0  0
  4  9  1  0  0  0  0
  9 10  1  0  0  0  0
 10 11  1  0  0  0  0
 11 12  1  0  0  0  0
 12 13  2  0  0  0  0
 12 14  2  0  0  0  0
 14 15  1  0  0  0  0
 15 16  1  0  0  0  0
 12 17  2  0  0  0  0
 17 18  1  0  0  0  0
 18 19  1  0  0  0  0
  1 20  1  0  0  0  0
  1 21  1  0  0  0  0
  1 22  1  0  0  0  0
  2 23  1  0  0  0  0
  2 24  1  0  0  0  0
  7 25  1  0  0  0  0
  7 26  1  0  0  0  0
  8 27  1  0  0  0  0
  8 28  1  0  0  0  0
  8 29  1  0  0  0  0
 10 30  1  0  0  0  0
 10 31  1  0  0  0  0
 15 32  1  0  0  0  0
 15 33  1  0  0  0  0
 16 34  1  0  0  0  0
 16 35  1  0  0  0  0
 16 36  1  0  0  0  0
 18 37  1  0  0  0  0
 18 38  1  0  0  0  0
 19 39  1  0  0  0  0
 19 40  1  0  0  0  0
 19 41  1  0  0  0  0
M  END
