 xtb: 6.7.1 (edcfbbe)
          04092505203D

 41 40  0     0  0            999 V2000
    3.1572    2.3001    0.3449 C   0  0  0  0  0  0  0  0  0  0  0  0
    2.8073    1.5525    1.6148 C   0  0  0  0  0  0  0  0  0  0  0  0
    1.7301    0.6004    1.4133 O   0  0  0  0  0  0  0  0  0  0  0  0
    1.8190   -0.7702    0.6487 P   0  0  0  0  0  0  0  0  0  0  0  0
    0.3168   -1.9439    1.1074 S   0  0  0  0  0  0  0  0  0  0  0  0
    3.2611   -1.2928    1.0559 O   0  0  0  0  0  0  0  0  0  0  0  0
    3.7350   -2.5884    0.6354 C   0  0  0  0  0  0  0  0  0  0  0  0
    4.9681   -2.9168    1.4522 C   0  0  0  0  0  0  0  0  0  0  0  0
    2.0386   -0.4159   -1.4470 S   0  0  0  0  0  0  0  0  0  0  0  0
    0.2940   -0.2537   -1.8520 C   0  0  0  0  0  0  0  0  0  0  0  0
   -0.4727    1.1328   -0.9497 S   0  0  0  0  0  0  0  0  0  0  0  0
   -2.4520    0.3660   -0.7603 P   0  0  0  0  0  0  0  0  0  0  0  0
   -2.6853   -1.5369   -1.1570 S   0  0  0  0  0  0  0  0  0  0  0  0
   -3.3316    1.2427   -1.7278 O   0  0  0  0  0  0  0  0  0  0  0  0
   -3.1691    2.6561   -2.0075 C   0  0  0  0  0  0  0  0  0  0  0  0
   -3.1285    3.5060   -0.7567 C   0  0  0  0  0  0  0  0  0  0  0  0
   -2.9777    0.8272    0.6669 O   0  0  0  0  0  0  0  0  0  0  0  0
   -2.6367    0.1730    1.9000 C   0  0  0  0  0  0  0  0  0  0  0  0
   -1.5885    0.9674    2.6541 C   0  0  0  0  0  0  0  0  0  0  0  0
    3.6538    1.6435   -0.3654 H   0  0  0  0  0  0  0  0  0  0  0  0
    2.2553    2.6973   -0.1156 H   0  0  0  0  0  0  0  0  0  0  0  0
    3.8233    3.1206    0.5927 H   0  0  0  0  0  0  0  0  0  0  0  0
    2.3994    2.2233    2.3725 H   0  0  0  0  0  0  0  0  0  0  0  0
    3.6700    1.0179    2.0140 H   0  0  0  0  0  0  0  0  0  0  0  0
    2.9373   -3.3210    0.7972 H   0  0  0  0  0  0  0  0  0  0  0  0
    3.9631   -2.5386   -0.4326 H   0  0  0  0  0  0  0  0  0  0  0  0
    5.3463   -3.8876    1.1495 H   0  0  0  0  0  0  0  0  0  0  0  0
    5.7343   -2.1651    1.2870 H   0  0  0  0  0  0  0  0  0  0  0  0
    4.7197   -2.9431    2.5095 H   0  0  0  0  0  0  0  0  0  0  0  0
   -0.2418   -1.1702   -1.5867 H   0  0  0  0  0  0  0  0  0  0  0  0
    0.2436   -0.0648   -2.9216 H   0  0  0  0  0  0  0  0  0  0  0  0
   -2.2538    2.7820   -2.5914 H   0  0  0  0  0  0  0  0  0  0  0  0
   -4.0382    2.8854   -2.6255 H   0  0  0  0  0  0  0  0  0  0  0  0
   -2.2356    3.2766   -0.1773 H   0  0  0  0  0  0  0  0  0  0  0  0
   -3.1057    4.5535   -1.0410 H   0  0  0  0  0  0  0  0  0  0  0  0
   -4.0053    3.3165   -0.1431 H   0  0  0  0  0  0  0  0  0  0  0  0
   -3.5729    0.1230    2.4595 H   0  0  0  0  0  0  0  0  0  0  0  0
   -2.2896   -0.8448    1.6911 H   0  0  0  0  0  0  0  0  0  0  0  0
   -1.4206    0.5004    3.6194 H   0  0  0  0  0  0  0  0  0  0  0  0
   -0.6490    0.9753    2.1055 H   0  0  0  0  0  0  0  0  0  0  0  0
   -1.9272    1.9893    2.7981 H   0  0  0  0  0  0  0  0  0  0  0  0
  1  2  1  0  0  0  0
  2  3  1  0  0  0  0
  3  4  2  0  0  0  0
  4  5  2  0  0  0  0
  4  6  2  0  0  0  0
  6  7  1  0  0  0  0
  7  8  1  0  0  0  0
  4  9  1  0  0  0  0
  9 10  1  0  0  0  0
 10 11  1  0  0  0  0
 11 12  1  0  0  0  0
 12 13  2  0  0  0  0
 12 14  2  0  0  0  0
 14 15  1  0  0  0  0
 15 16  1  0  0  0  0
 12 17  2  0  0  0  0
 17 18  1  0  0  0  0
 18 19  1  0  0  0  0
  1 20  1  0  0  0  0
  1 21  1  0  0  0  0
  1 22  1  0  0  0  0
  2 23  1  0  0  0  0
  2 24  1  0  0  0  0
  7 25  1  0  0  0  0
  7 26  1  0  0  0  0
  8 27  1  0  0  0  0
  8 28  1  0  0  0  0
  8 29  1  0  0  0  0
 10 30  1  0  0  0  0
 10 31  1  0  0  0  0
 15 32  1  0  0  0  0
 15 33  1  0  0  0  0
 16 34  1  0  0  0  0
 16 35  1  0  0  0  0
 16 36  1  0  0  0  0
 18 37  1  0  0  0  0
 18 38  1  0  0  0  0
 19 39  1  0  0  0  0
 19 40  1  0  0  0  0
 19 41  1  0  0  0  0
M  END
