 xtb: 6.7.1 (edcfbbe)
          04092507313D

 38 37  0     0  0            999 V2000
    3.4454   -1.5024    1.7408 C   0  0  0  0  0  0  0  0  0  0  0  0
    2.9352   -2.1710    0.4773 C   0  0  0  0  0  0  0  0  0  0  0  0
    2.6588   -1.1683   -0.5205 O   0  0  0  0  0  0  0  0  0  0  0  0
    1.4738   -1.1040   -1.0770 C   0  0  0  0  0  0  0  0  0  0  0  0
    0.5396   -1.8423   -0.8197 O   0  0  0  0  0  0  0  0  0  0  0  0
    1.3953   -0.0052   -2.1156 C   0  0  0  0  0  0  0  0  0  0  0  0
    0.2088    0.9276   -1.8645 C   0  0  0  0  0  0  0  0  0  0  0  0
    0.0859    1.5889   -2.7279 H   0  0  0  0  0  0  0  0  0  0  0  0
    0.3709    1.8007   -0.6309 C   0  0  0  0  0  0  0  0  0  0  0  0
   -0.5314    1.9654    0.1660 O   0  0  0  0  0  0  0  0  0  0  0  0
    1.5502    2.3529   -0.5718 O   0  0  0  0  0  0  0  0  0  0  0  0
    1.8703    3.1949    0.5582 C   0  0  0  0  0  0  0  0  0  0  0  0
    2.5005    2.3733    1.6694 C   0  0  0  0  0  0  0  0  0  0  0  0
   -1.3940    0.0708   -1.7348 S   0  0  0  0  0  0  0  0  0  0  0  0
   -1.5219   -0.4942    0.3281 P   0  0  0  0  0  0  0  0  0  0  0  0
   -0.1755   -0.4361    1.7511 S   0  0  0  0  0  0  0  0  0  0  0  0
   -2.9089    0.2018    0.7583 O   0  0  0  0  0  0  0  0  0  0  0  0
   -3.0642    1.4785    1.3705 C   0  0  0  0  0  0  0  0  0  0  0  0
   -2.0477   -1.9894    0.2380 O   0  0  0  0  0  0  0  0  0  0  0  0
   -3.0680   -2.4309   -0.6701 C   0  0  0  0  0  0  0  0  0  0  0  0
    2.6589   -0.8940    2.1819 H   0  0  0  0  0  0  0  0  0  0  0  0
    3.7378   -2.2665    2.4531 H   0  0  0  0  0  0  0  0  0  0  0  0
    4.3018   -0.8758    1.5116 H   0  0  0  0  0  0  0  0  0  0  0  0
    2.0188   -2.7354    0.6711 H   0  0  0  0  0  0  0  0  0  0  0  0
    3.6931   -2.8261    0.0412 H   0  0  0  0  0  0  0  0  0  0  0  0
    1.2573   -0.4832   -3.0871 H   0  0  0  0  0  0  0  0  0  0  0  0
    2.3223    0.5672   -2.1051 H   0  0  0  0  0  0  0  0  0  0  0  0
    2.5693    3.9284    0.1561 H   0  0  0  0  0  0  0  0  0  0  0  0
    0.9545    3.6814    0.9031 H   0  0  0  0  0  0  0  0  0  0  0  0
    2.7685    3.0270    2.4923 H   0  0  0  0  0  0  0  0  0  0  0  0
    1.7963    1.6244    2.0293 H   0  0  0  0  0  0  0  0  0  0  0  0
    3.3907    1.8689    1.3049 H   0  0  0  0  0  0  0  0  0  0  0  0
   -2.2696    1.6459    2.0984 H   0  0  0  0  0  0  0  0  0  0  0  0
   -4.0343    1.4496    1.8617 H   0  0  0  0  0  0  0  0  0  0  0  0
   -3.0335    2.2603    0.6132 H   0  0  0  0  0  0  0  0  0  0  0  0
   -2.6840   -2.4161   -1.6901 H   0  0  0  0  0  0  0  0  0  0  0  0
   -3.9478   -1.7942   -0.5883 H   0  0  0  0  0  0  0  0  0  0  0  0
   -3.2970   -3.4484   -0.3634 H   0  0  0  0  0  0  0  0  0  0  0  0
  1  2  1  0  0  0  0
  2  3  1  0  0  0  0
  3  4  4  0  0  0  0
  4  5  2  0  0  0  0
  4  6  1  0  0  0  0
  6  7  1  0  0  0  0
  7  8  1  0  0  0  0
  7  9  1  0  0  0  0
  9 10  2  0  0  0  0
  9 11  4  0  0  0  0
 11 12  1  0  0  0  0
 12 13  1  0  0  0  0
  7 14  1  0  0  0  0
 14 15  1  0  0  0  0
 15 16  2  0  0  0  0
 15 17  1  0  0  0  0
 17 18  1  0  0  0  0
 15 19  2  0  0  0  0
 19 20  1  0  0  0  0
  1 21  1  0  0  0  0
  1 22  1  0  0  0  0
  1 23  1  0  0  0  0
  2 24  1  0  0  0  0
  2 25  1  0  0  0  0
  6 26  1  0  0  0  0
  6 27  1  0  0  0  0
 12 28  1  0  0  0  0
 12 29  1  0  0  0  0
 13 30  1  0  0  0  0
 13 31  1  0  0  0  0
 13 32  1  0  0  0  0
 18 33  1  0  0  0  0
 18 34  1  0  0  0  0
 18 35  1  0  0  0  0
 20 36  1  0  0  0  0
 20 37  1  0  0  0  0
 20 38  1  0  0  0  0
M  END
