 xtb: 6.7.1 (edcfbbe)
          04092505213D

 41 40  0     0  0            999 V2000
    5.4857   -0.3997   -0.9489 C   0  0  0  0  0  0  0  0  0  0  0  0
    4.1073   -0.0876   -1.4943 C   0  0  0  0  0  0  0  0  0  0  0  0
    3.3117    0.6026   -0.4979 O   0  0  0  0  0  0  0  0  0  0  0  0
    2.2725   -0.1172    0.4444 P   0  0  0  0  0  0  0  0  0  0  0  0
    1.6257    1.1384    1.7971 S   0  0  0  0  0  0  0  0  0  0  0  0
    3.0683   -1.3973    0.9430 O   0  0  0  0  0  0  0  0  0  0  0  0
    2.4587   -2.5549    1.5454 C   0  0  0  0  0  0  0  0  0  0  0  0
    1.9366   -2.2710    2.9391 C   0  0  0  0  0  0  0  0  0  0  0  0
    0.8275   -1.0008   -0.8739 S   0  0  0  0  0  0  0  0  0  0  0  0
    0.2633    0.5232   -1.6724 C   0  0  0  0  0  0  0  0  0  0  0  0
   -0.8075    1.5576   -0.6431 S   0  0  0  0  0  0  0  0  0  0  0  0
   -2.5746    0.3521   -0.6772 P   0  0  0  0  0  0  0  0  0  0  0  0
   -2.6044   -1.0129   -2.0789 S   0  0  0  0  0  0  0  0  0  0  0  0
   -3.7914    1.3314   -0.8731 O   0  0  0  0  0  0  0  0  0  0  0  0
   -4.3281    2.2392    0.1194 C   0  0  0  0  0  0  0  0  0  0  0  0
   -3.3407    3.3158    0.5176 C   0  0  0  0  0  0  0  0  0  0  0  0
   -2.7968   -0.1029    0.8342 O   0  0  0  0  0  0  0  0  0  0  0  0
   -1.8660   -0.8443    1.6367 C   0  0  0  0  0  0  0  0  0  0  0  0
   -1.8298   -2.3123    1.2615 C   0  0  0  0  0  0  0  0  0  0  0  0
    5.4112   -1.0780   -0.1035 H   0  0  0  0  0  0  0  0  0  0  0  0
    6.0811   -0.8617   -1.7303 H   0  0  0  0  0  0  0  0  0  0  0  0
    5.9712    0.5153   -0.6206 H   0  0  0  0  0  0  0  0  0  0  0  0
    3.5864   -0.9987   -1.8007 H   0  0  0  0  0  0  0  0  0  0  0  0
    4.1631    0.6082   -2.3339 H   0  0  0  0  0  0  0  0  0  0  0  0
    1.6583   -2.9078    0.8887 H   0  0  0  0  0  0  0  0  0  0  0  0
    3.2659   -3.2895    1.5674 H   0  0  0  0  0  0  0  0  0  0  0  0
    2.7325   -1.8755    3.5648 H   0  0  0  0  0  0  0  0  0  0  0  0
    1.1338   -1.5376    2.9024 H   0  0  0  0  0  0  0  0  0  0  0  0
    1.5612   -3.1910    3.3758 H   0  0  0  0  0  0  0  0  0  0  0  0
   -0.2901    0.2019   -2.5549 H   0  0  0  0  0  0  0  0  0  0  0  0
    1.1180    1.1418   -1.9364 H   0  0  0  0  0  0  0  0  0  0  0  0
   -5.2011    2.6619   -0.3803 H   0  0  0  0  0  0  0  0  0  0  0  0
   -4.6412    1.6536    0.9855 H   0  0  0  0  0  0  0  0  0  0  0  0
   -2.9828    3.8472   -0.3608 H   0  0  0  0  0  0  0  0  0  0  0  0
   -3.8309    4.0181    1.1848 H   0  0  0  0  0  0  0  0  0  0  0  0
   -2.4853    2.8816    1.0339 H   0  0  0  0  0  0  0  0  0  0  0  0
   -0.8757   -0.3826    1.5505 H   0  0  0  0  0  0  0  0  0  0  0  0
   -2.2317   -0.7052    2.6561 H   0  0  0  0  0  0  0  0  0  0  0  0
   -1.4476   -2.4402    0.2505 H   0  0  0  0  0  0  0  0  0  0  0  0
   -1.1859   -2.8429    1.9557 H   0  0  0  0  0  0  0  0  0  0  0  0
   -2.8316   -2.7312    1.3069 H   0  0  0  0  0  0  0  0  0  0  0  0
  1  2  1  0  0  0  0
  2  3  1  0  0  0  0
  3  4  2  0  0  0  0
  4  5  2  0  0  0  0
  4  6  2  0  0  0  0
  6  7  1  0  0  0  0
  7  8  1  0  0  0  0
  4  9  1  0  0  0  0
  9 10  1  0  0  0  0
 10 11  1  0  0  0  0
 11 12  1  0  0  0  0
 12 13  2  0  0  0  0
 12 14  2  0  0  0  0
 14 15  1  0  0  0  0
 15 16  1  0  0  0  0
 12 17  2  0  0  0  0
 17 18  1  0  0  0  0
 18 19  1  0  0  0  0
  1 20  1  0  0  0  0
  1 21  1  0  0  0  0
  1 22  1  0  0  0  0
  2 23  1  0  0  0  0
  2 24  1  0  0  0  0
  7 25  1  0  0  0  0
  7 26  1  0  0  0  0
  8 27  1  0  0  0  0
  8 28  1  0  0  0  0
  8 29  1  0  0  0  0
 10 30  1  0  0  0  0
 10 31  1  0  0  0  0
 15 32  1  0  0  0  0
 15 33  1  0  0  0  0
 16 34  1  0  0  0  0
 16 35  1  0  0  0  0
 16 36  1  0  0  0  0
 18 37  1  0  0  0  0
 18 38  1  0  0  0  0
 19 39  1  0  0  0  0
 19 40  1  0  0  0  0
 19 41  1  0  0  0  0
M  END
