 xtb: 6.7.1 (edcfbbe)
          04032520393D

 22 22  0     0  0            999 V2000
    2.4779   -0.0100    0.6659 C   0  0  0  0  0  0  0  0  0  0  0  0
    1.0675    0.0255    0.3551 N   0  0  0  0  0  0  0  0  0  0  0  0
    0.7072    1.1300   -0.5152 C   0  0  0  0  0  0  0  0  0  0  0  0
   -0.8293    1.2802   -0.5390 C   0  0  0  0  0  0  0  0  0  0  0  0
   -1.5318    0.0407   -0.2373 N   0  0  0  0  0  0  0  0  0  0  0  0
   -0.8040   -1.0773   -0.7996 C   0  0  0  0  0  0  0  0  0  0  0  0
    0.6109   -1.2386   -0.2038 C   0  0  0  0  0  0  0  0  0  0  0  0
   -1.8311   -0.1286    1.1745 C   0  0  0  0  0  0  0  0  0  0  0  0
    2.7604    0.9227    1.1511 H   0  0  0  0  0  0  0  0  0  0  0  0
    3.1068   -0.1492   -0.2290 H   0  0  0  0  0  0  0  0  0  0  0  0
    2.6654   -0.8347    1.3520 H   0  0  0  0  0  0  0  0  0  0  0  0
    1.1629    2.0413   -0.1244 H   0  0  0  0  0  0  0  0  0  0  0  0
    1.0947    0.9717   -1.5388 H   0  0  0  0  0  0  0  0  0  0  0  0
   -1.1451    2.0338    0.1816 H   0  0  0  0  0  0  0  0  0  0  0  0
   -1.1419    1.6089   -1.5362 H   0  0  0  0  0  0  0  0  0  0  0  0
   -1.3819   -1.9896   -0.6430 H   0  0  0  0  0  0  0  0  0  0  0  0
   -0.7354   -0.9006   -1.8767 H   0  0  0  0  0  0  0  0  0  0  0  0
    0.6071   -1.9727    0.6069 H   0  0  0  0  0  0  0  0  0  0  0  0
    1.2987   -1.6031   -0.9892 H   0  0  0  0  0  0  0  0  0  0  0  0
   -2.3543   -1.0748    1.3023 H   0  0  0  0  0  0  0  0  0  0  0  0
   -2.4954    0.6772    1.4839 H   0  0  0  0  0  0  0  0  0  0  0  0
   -0.9399   -0.1222    1.8108 H   0  0  0  0  0  0  0  0  0  0  0  0
  1  2  1  0  0  0  0
  2  3  1  0  0  0  0
  3  4  1  0  0  0  0
  4  5  1  0  0  0  0
  5  6  1  0  0  0  0
  2  7  1  0  0  0  0
  6  7  1  0  0  0  0
  5  8  1  0  0  0  0
  1  9  1  0  0  0  0
  1 10  1  0  0  0  0
  1 11  1  0  0  0  0
  3 12  1  0  0  0  0
  3 13  1  0  0  0  0
  4 14  1  0  0  0  0
  4 15  1  0  0  0  0
  6 16  1  0  0  0  0
  6 17  1  0  0  0  0
  7 18  1  0  0  0  0
  7 19  1  0  0  0  0
  8 20  1  0  0  0  0
  8 21  1  0  0  0  0
  8 22  1  0  0  0  0
M  END
