 xtb: 6.7.1 (edcfbbe)
          04092505203D

 41 40  0     0  0            999 V2000
    3.1367    2.2287   -1.8911 C   0  0  0  0  0  0  0  0  0  0  0  0
    1.9828    1.2585   -1.7544 C   0  0  0  0  0  0  0  0  0  0  0  0
    1.4642    1.2764   -0.4008 O   0  0  0  0  0  0  0  0  0  0  0  0
    1.8231    0.1797    0.6700 P   0  0  0  0  0  0  0  0  0  0  0  0
    1.2154    0.6593    2.4645 S   0  0  0  0  0  0  0  0  0  0  0  0
    3.3974    0.0636    0.4587 O   0  0  0  0  0  0  0  0  0  0  0  0
    4.2329   -0.9122    1.1089 C   0  0  0  0  0  0  0  0  0  0  0  0
    4.6580   -0.4588    2.4920 C   0  0  0  0  0  0  0  0  0  0  0  0
    1.1815   -1.7289   -0.0565 S   0  0  0  0  0  0  0  0  0  0  0  0
   -0.1275   -2.1098    1.1340 C   0  0  0  0  0  0  0  0  0  0  0  0
   -1.7928   -2.1674    0.4105 S   0  0  0  0  0  0  0  0  0  0  0  0
   -1.8510   -0.2767   -0.5616 P   0  0  0  0  0  0  0  0  0  0  0  0
   -1.1141   -0.2046   -2.3799 S   0  0  0  0  0  0  0  0  0  0  0  0
   -1.1953    0.6605    0.5335 O   0  0  0  0  0  0  0  0  0  0  0  0
   -1.7113    1.9666    0.8834 C   0  0  0  0  0  0  0  0  0  0  0  0
   -1.5386    2.9538   -0.2501 C   0  0  0  0  0  0  0  0  0  0  0  0
   -3.3860    0.1111   -0.4851 O   0  0  0  0  0  0  0  0  0  0  0  0
   -4.3455   -0.3249   -1.4693 C   0  0  0  0  0  0  0  0  0  0  0  0
   -5.4476    0.7125   -1.5452 C   0  0  0  0  0  0  0  0  0  0  0  0
    3.9618    1.9243   -1.2528 H   0  0  0  0  0  0  0  0  0  0  0  0
    3.4653    2.2399   -2.9255 H   0  0  0  0  0  0  0  0  0  0  0  0
    2.8199    3.2276   -1.6039 H   0  0  0  0  0  0  0  0  0  0  0  0
    2.2820    0.2385   -2.0095 H   0  0  0  0  0  0  0  0  0  0  0  0
    1.1371    1.5445   -2.3837 H   0  0  0  0  0  0  0  0  0  0  0  0
    3.6995   -1.8662    1.1522 H   0  0  0  0  0  0  0  0  0  0  0  0
    5.0934   -1.0082    0.4437 H   0  0  0  0  0  0  0  0  0  0  0  0
    3.7943   -0.3664    3.1463 H   0  0  0  0  0  0  0  0  0  0  0  0
    5.3434   -1.1890    2.9100 H   0  0  0  0  0  0  0  0  0  0  0  0
    5.1532    0.5067    2.4340 H   0  0  0  0  0  0  0  0  0  0  0  0
   -0.0954   -1.3646    1.9344 H   0  0  0  0  0  0  0  0  0  0  0  0
    0.0513   -3.1112    1.5184 H   0  0  0  0  0  0  0  0  0  0  0  0
   -2.7604    1.8566    1.1616 H   0  0  0  0  0  0  0  0  0  0  0  0
   -1.1186    2.2443    1.7575 H   0  0  0  0  0  0  0  0  0  0  0  0
   -2.0790    2.6076   -1.1307 H   0  0  0  0  0  0  0  0  0  0  0  0
   -1.9256    3.9215    0.0526 H   0  0  0  0  0  0  0  0  0  0  0  0
   -0.4852    3.0479   -0.5033 H   0  0  0  0  0  0  0  0  0  0  0  0
   -3.8338   -0.4379   -2.4314 H   0  0  0  0  0  0  0  0  0  0  0  0
   -4.7306   -1.2963   -1.1503 H   0  0  0  0  0  0  0  0  0  0  0  0
   -6.1969    0.3798   -2.2558 H   0  0  0  0  0  0  0  0  0  0  0  0
   -5.9082    0.8380   -0.5696 H   0  0  0  0  0  0  0  0  0  0  0  0
   -5.0451    1.6674   -1.8722 H   0  0  0  0  0  0  0  0  0  0  0  0
  1  2  1  0  0  0  0
  2  3  1  0  0  0  0
  3  4  2  0  0  0  0
  4  5  2  0  0  0  0
  4  6  2  0  0  0  0
  6  7  1  0  0  0  0
  7  8  1  0  0  0  0
  4  9  1  0  0  0  0
  9 10  1  0  0  0  0
 10 11  1  0  0  0  0
 11 12  1  0  0  0  0
 12 13  2  0  0  0  0
 12 14  2  0  0  0  0
 14 15  1  0  0  0  0
 15 16  1  0  0  0  0
 12 17  2  0  0  0  0
 17 18  1  0  0  0  0
 18 19  1  0  0  0  0
  1 20  1  0  0  0  0
  1 21  1  0  0  0  0
  1 22  1  0  0  0  0
  2 23  1  0  0  0  0
  2 24  1  0  0  0  0
  7 25  1  0  0  0  0
  7 26  1  0  0  0  0
  8 27  1  0  0  0  0
  8 28  1  0  0  0  0
  8 29  1  0  0  0  0
 10 30  1  0  0  0  0
 10 31  1  0  0  0  0
 15 32  1  0  0  0  0
 15 33  1  0  0  0  0
 16 34  1  0  0  0  0
 16 35  1  0  0  0  0
 16 36  1  0  0  0  0
 18 37  1  0  0  0  0
 18 38  1  0  0  0  0
 19 39  1  0  0  0  0
 19 40  1  0  0  0  0
 19 41  1  0  0  0  0
M  END
