 xtb: 6.7.1 (edcfbbe)
          04092507313D

 38 37  0     0  0            999 V2000
    3.4208   -3.1414    0.4055 C   0  0  0  0  0  0  0  0  0  0  0  0
    2.9091   -1.8078    0.9250 C   0  0  0  0  0  0  0  0  0  0  0  0
    2.7150   -0.8716   -0.1533 O   0  0  0  0  0  0  0  0  0  0  0  0
    1.6095   -0.9391   -0.8636 C   0  0  0  0  0  0  0  0  0  0  0  0
    0.7032   -1.7243   -0.6608 O   0  0  0  0  0  0  0  0  0  0  0  0
    1.5813    0.1038   -1.9611 C   0  0  0  0  0  0  0  0  0  0  0  0
    0.3492    1.0010   -1.8140 C   0  0  0  0  0  0  0  0  0  0  0  0
    0.3096    1.7056   -2.6491 H   0  0  0  0  0  0  0  0  0  0  0  0
    0.3526    1.7790   -0.5136 C   0  0  0  0  0  0  0  0  0  0  0  0
   -0.6272    1.8304    0.2108 O   0  0  0  0  0  0  0  0  0  0  0  0
    1.4900    2.3523   -0.2619 O   0  0  0  0  0  0  0  0  0  0  0  0
    1.6312    3.0700    0.9865 C   0  0  0  0  0  0  0  0  0  0  0  0
    3.0911    3.4449    1.1371 C   0  0  0  0  0  0  0  0  0  0  0  0
   -1.2293    0.0830   -1.8956 S   0  0  0  0  0  0  0  0  0  0  0  0
   -1.6293   -0.4203    0.1250 P   0  0  0  0  0  0  0  0  0  0  0  0
   -0.5439   -0.5648    1.7706 S   0  0  0  0  0  0  0  0  0  0  0  0
   -3.0246    0.3159    0.4337 O   0  0  0  0  0  0  0  0  0  0  0  0
   -3.2082    1.4314    1.3010 C   0  0  0  0  0  0  0  0  0  0  0  0
   -2.2174   -1.8393   -0.3287 O   0  0  0  0  0  0  0  0  0  0  0  0
   -2.7559   -2.7733    0.6075 C   0  0  0  0  0  0  0  0  0  0  0  0
    2.6710   -3.6078   -0.2298 H   0  0  0  0  0  0  0  0  0  0  0  0
    4.3327   -2.9950   -0.1670 H   0  0  0  0  0  0  0  0  0  0  0  0
    3.6242   -3.7962    1.2462 H   0  0  0  0  0  0  0  0  0  0  0  0
    3.6411   -1.3241    1.5713 H   0  0  0  0  0  0  0  0  0  0  0  0
    1.9617   -1.9292    1.4587 H   0  0  0  0  0  0  0  0  0  0  0  0
    1.5182   -0.4118   -2.9198 H   0  0  0  0  0  0  0  0  0  0  0  0
    2.4881    0.7053   -1.9084 H   0  0  0  0  0  0  0  0  0  0  0  0
    0.9843    3.9508    0.9466 H   0  0  0  0  0  0  0  0  0  0  0  0
    1.2848    2.4190    1.7955 H   0  0  0  0  0  0  0  0  0  0  0  0
    3.7058    2.5502    1.1575 H   0  0  0  0  0  0  0  0  0  0  0  0
    3.4025    4.0695    0.3058 H   0  0  0  0  0  0  0  0  0  0  0  0
    3.2239    3.9898    2.0656 H   0  0  0  0  0  0  0  0  0  0  0  0
   -4.2292    1.3570    1.6684 H   0  0  0  0  0  0  0  0  0  0  0  0
   -3.0601    2.3559    0.7462 H   0  0  0  0  0  0  0  0  0  0  0  0
   -2.4972    1.3834    2.1278 H   0  0  0  0  0  0  0  0  0  0  0  0
   -2.0975   -2.8590    1.4751 H   0  0  0  0  0  0  0  0  0  0  0  0
   -2.8096   -3.7217    0.0789 H   0  0  0  0  0  0  0  0  0  0  0  0
   -3.7472   -2.4510    0.9270 H   0  0  0  0  0  0  0  0  0  0  0  0
  1  2  1  0  0  0  0
  2  3  1  0  0  0  0
  3  4  4  0  0  0  0
  4  5  2  0  0  0  0
  4  6  1  0  0  0  0
  6  7  1  0  0  0  0
  7  8  1  0  0  0  0
  7  9  1  0  0  0  0
  9 10  2  0  0  0  0
  9 11  4  0  0  0  0
 11 12  1  0  0  0  0
 12 13  1  0  0  0  0
  7 14  1  0  0  0  0
 14 15  1  0  0  0  0
 15 16  2  0  0  0  0
 15 17  1  0  0  0  0
 17 18  1  0  0  0  0
 15 19  1  0  0  0  0
 19 20  1  0  0  0  0
  1 21  1  0  0  0  0
  1 22  1  0  0  0  0
  1 23  1  0  0  0  0
  2 24  1  0  0  0  0
  2 25  1  0  0  0  0
  6 26  1  0  0  0  0
  6 27  1  0  0  0  0
 12 28  1  0  0  0  0
 12 29  1  0  0  0  0
 13 30  1  0  0  0  0
 13 31  1  0  0  0  0
 13 32  1  0  0  0  0
 18 33  1  0  0  0  0
 18 34  1  0  0  0  0
 18 35  1  0  0  0  0
 20 36  1  0  0  0  0
 20 37  1  0  0  0  0
 20 38  1  0  0  0  0
M  END
