 xtb: 6.7.1 (edcfbbe)
          04092505213D

 41 40  0     0  0            999 V2000
    5.6894   -0.3454   -0.7244 C   0  0  0  0  0  0  0  0  0  0  0  0
    4.5682   -1.1297   -1.3725 C   0  0  0  0  0  0  0  0  0  0  0  0
    3.4070   -1.2132   -0.5194 O   0  0  0  0  0  0  0  0  0  0  0  0
    2.5090    0.0488   -0.1851 P   0  0  0  0  0  0  0  0  0  0  0  0
    2.2785    1.3166   -1.6704 S   0  0  0  0  0  0  0  0  0  0  0  0
    3.2004    0.6374    1.1175 O   0  0  0  0  0  0  0  0  0  0  0  0
    2.9428    1.9691    1.5955 C   0  0  0  0  0  0  0  0  0  0  0  0
    1.5295    2.1183    2.1191 C   0  0  0  0  0  0  0  0  0  0  0  0
    0.8147   -0.9799    0.5276 S   0  0  0  0  0  0  0  0  0  0  0  0
    0.0821   -1.2658   -1.1227 C   0  0  0  0  0  0  0  0  0  0  0  0
   -1.6542   -1.7284   -1.0236 S   0  0  0  0  0  0  0  0  0  0  0  0
   -2.3611    0.0158   -0.0587 P   0  0  0  0  0  0  0  0  0  0  0  0
   -1.4888    1.7137   -0.4756 S   0  0  0  0  0  0  0  0  0  0  0  0
   -2.2465   -0.4805    1.4565 O   0  0  0  0  0  0  0  0  0  0  0  0
   -2.1227    0.4359    2.5592 C   0  0  0  0  0  0  0  0  0  0  0  0
   -3.4303    1.1500    2.8369 C   0  0  0  0  0  0  0  0  0  0  0  0
   -3.9070    0.0759   -0.4034 O   0  0  0  0  0  0  0  0  0  0  0  0
   -4.8365   -0.9903   -0.0842 C   0  0  0  0  0  0  0  0  0  0  0  0
   -5.1100   -1.8505   -1.3014 C   0  0  0  0  0  0  0  0  0  0  0  0
    5.9076   -0.7475    0.2614 H   0  0  0  0  0  0  0  0  0  0  0  0
    6.5772   -0.4058   -1.3460 H   0  0  0  0  0  0  0  0  0  0  0  0
    5.3992    0.6995   -0.6226 H   0  0  0  0  0  0  0  0  0  0  0  0
    4.8444   -2.1719   -1.5376 H   0  0  0  0  0  0  0  0  0  0  0  0
    4.2688   -0.6658   -2.3178 H   0  0  0  0  0  0  0  0  0  0  0  0
    3.6831    2.1116    2.3839 H   0  0  0  0  0  0  0  0  0  0  0  0
    3.1238    2.6742    0.7777 H   0  0  0  0  0  0  0  0  0  0  0  0
    1.3159    1.3414    2.8496 H   0  0  0  0  0  0  0  0  0  0  0  0
    1.4150    3.0934    2.5816 H   0  0  0  0  0  0  0  0  0  0  0  0
    0.8186    2.0395    1.2954 H   0  0  0  0  0  0  0  0  0  0  0  0
    0.5932   -2.0937   -1.6095 H   0  0  0  0  0  0  0  0  0  0  0  0
    0.1790   -0.3431   -1.7015 H   0  0  0  0  0  0  0  0  0  0  0  0
   -1.8139   -0.1953    3.3932 H   0  0  0  0  0  0  0  0  0  0  0  0
   -1.3337    1.1567    2.3258 H   0  0  0  0  0  0  0  0  0  0  0  0
   -3.7108    1.7497    1.9710 H   0  0  0  0  0  0  0  0  0  0  0  0
   -4.2202    0.4323    3.0421 H   0  0  0  0  0  0  0  0  0  0  0  0
   -3.3076    1.8048    3.6938 H   0  0  0  0  0  0  0  0  0  0  0  0
   -4.4294   -1.5839    0.7376 H   0  0  0  0  0  0  0  0  0  0  0  0
   -5.7393   -0.4708    0.2420 H   0  0  0  0  0  0  0  0  0  0  0  0
   -5.4445   -1.2291   -2.1274 H   0  0  0  0  0  0  0  0  0  0  0  0
   -4.2104   -2.3823   -1.6036 H   0  0  0  0  0  0  0  0  0  0  0  0
   -5.8847   -2.5708   -1.0581 H   0  0  0  0  0  0  0  0  0  0  0  0
  1  2  1  0  0  0  0
  2  3  1  0  0  0  0
  3  4  2  0  0  0  0
  4  5  2  0  0  0  0
  4  6  2  0  0  0  0
  6  7  1  0  0  0  0
  7  8  1  0  0  0  0
  4  9  1  0  0  0  0
  9 10  1  0  0  0  0
 10 11  1  0  0  0  0
 11 12  1  0  0  0  0
 12 13  2  0  0  0  0
 12 14  1  0  0  0  0
 14 15  1  0  0  0  0
 15 16  1  0  0  0  0
 12 17  2  0  0  0  0
 17 18  1  0  0  0  0
 18 19  1  0  0  0  0
  1 20  1  0  0  0  0
  1 21  1  0  0  0  0
  1 22  1  0  0  0  0
  2 23  1  0  0  0  0
  2 24  1  0  0  0  0
  7 25  1  0  0  0  0
  7 26  1  0  0  0  0
  8 27  1  0  0  0  0
  8 28  1  0  0  0  0
  8 29  1  0  0  0  0
 10 30  1  0  0  0  0
 10 31  1  0  0  0  0
 15 32  1  0  0  0  0
 15 33  1  0  0  0  0
 16 34  1  0  0  0  0
 16 35  1  0  0  0  0
 16 36  1  0  0  0  0
 18 37  1  0  0  0  0
 18 38  1  0  0  0  0
 19 39  1  0  0  0  0
 19 40  1  0  0  0  0
 19 41  1  0  0  0  0
M  END
