 xtb: 6.7.1 (edcfbbe)
          04092507313D

 38 37  0     0  0            999 V2000
    1.6442   -3.6731    0.2595 C   0  0  0  0  0  0  0  0  0  0  0  0
    2.5808   -2.4810    0.3402 C   0  0  0  0  0  0  0  0  0  0  0  0
    2.3602   -1.6455   -0.8114 O   0  0  0  0  0  0  0  0  0  0  0  0
    2.1624   -0.3570   -0.6605 C   0  0  0  0  0  0  0  0  0  0  0  0
    2.1945    0.2441    0.3936 O   0  0  0  0  0  0  0  0  0  0  0  0
    1.8440    0.3259   -1.9776 C   0  0  0  0  0  0  0  0  0  0  0  0
    0.4501    0.9491   -1.8704 C   0  0  0  0  0  0  0  0  0  0  0  0
    0.2404    1.5466   -2.7609 H   0  0  0  0  0  0  0  0  0  0  0  0
    0.3278    1.8323   -0.6455 C   0  0  0  0  0  0  0  0  0  0  0  0
   -0.5199    1.6316    0.2117 O   0  0  0  0  0  0  0  0  0  0  0  0
    1.1495    2.8336   -0.6640 O   0  0  0  0  0  0  0  0  0  0  0  0
    1.1547    3.7637    0.4447 C   0  0  0  0  0  0  0  0  0  0  0  0
    2.1387    3.3208    1.5130 C   0  0  0  0  0  0  0  0  0  0  0  0
   -0.8603   -0.3261   -1.8015 S   0  0  0  0  0  0  0  0  0  0  0  0
   -1.4672   -0.5081    0.2231 P   0  0  0  0  0  0  0  0  0  0  0  0
   -0.4135   -0.7878    1.8659 S   0  0  0  0  0  0  0  0  0  0  0  0
   -2.8290    0.3098    0.4462 O   0  0  0  0  0  0  0  0  0  0  0  0
   -3.0090    1.3891    1.3598 C   0  0  0  0  0  0  0  0  0  0  0  0
   -2.1273   -1.9138   -0.2319 O   0  0  0  0  0  0  0  0  0  0  0  0
   -2.8635   -2.7307    0.6773 C   0  0  0  0  0  0  0  0  0  0  0  0
    1.7955   -4.2044   -0.6753 H   0  0  0  0  0  0  0  0  0  0  0  0
    1.8365   -4.3379    1.0946 H   0  0  0  0  0  0  0  0  0  0  0  0
    0.6101   -3.3367    0.3101 H   0  0  0  0  0  0  0  0  0  0  0  0
    3.6268   -2.7941    0.3053 H   0  0  0  0  0  0  0  0  0  0  0  0
    2.3986   -1.8912    1.2439 H   0  0  0  0  0  0  0  0  0  0  0  0
    1.8674   -0.4009   -2.7867 H   0  0  0  0  0  0  0  0  0  0  0  0
    2.5742    1.1187   -2.1471 H   0  0  0  0  0  0  0  0  0  0  0  0
    1.4514    4.7112   -0.0058 H   0  0  0  0  0  0  0  0  0  0  0  0
    0.1424    3.8287    0.8512 H   0  0  0  0  0  0  0  0  0  0  0  0
    2.1100    4.0214    2.3408 H   0  0  0  0  0  0  0  0  0  0  0  0
    1.8767    2.3286    1.8753 H   0  0  0  0  0  0  0  0  0  0  0  0
    3.1450    3.2800    1.1071 H   0  0  0  0  0  0  0  0  0  0  0  0
   -2.9082    2.3340    0.8291 H   0  0  0  0  0  0  0  0  0  0  0  0
   -2.2687    1.3327    2.1598 H   0  0  0  0  0  0  0  0  0  0  0  0
   -4.0137    1.2790    1.7630 H   0  0  0  0  0  0  0  0  0  0  0  0
   -2.3377   -2.7957    1.6331 H   0  0  0  0  0  0  0  0  0  0  0  0
   -2.9274   -3.7107    0.2107 H   0  0  0  0  0  0  0  0  0  0  0  0
   -3.8582   -2.3133    0.8316 H   0  0  0  0  0  0  0  0  0  0  0  0
  1  2  1  0  0  0  0
  2  3  1  0  0  0  0
  3  4  4  0  0  0  0
  4  5  2  0  0  0  0
  4  6  1  0  0  0  0
  6  7  1  0  0  0  0
  7  8  1  0  0  0  0
  7  9  1  0  0  0  0
  9 10  2  0  0  0  0
  9 11  4  0  0  0  0
 11 12  1  0  0  0  0
 12 13  1  0  0  0  0
  7 14  1  0  0  0  0
 14 15  1  0  0  0  0
 15 16  2  0  0  0  0
 15 17  1  0  0  0  0
 17 18  1  0  0  0  0
 15 19  1  0  0  0  0
 19 20  1  0  0  0  0
  1 21  1  0  0  0  0
  1 22  1  0  0  0  0
  1 23  1  0  0  0  0
  2 24  1  0  0  0  0
  2 25  1  0  0  0  0
  6 26  1  0  0  0  0
  6 27  1  0  0  0  0
 12 28  1  0  0  0  0
 12 29  1  0  0  0  0
 13 30  1  0  0  0  0
 13 31  1  0  0  0  0
 13 32  1  0  0  0  0
 18 33  1  0  0  0  0
 18 34  1  0  0  0  0
 18 35  1  0  0  0  0
 20 36  1  0  0  0  0
 20 37  1  0  0  0  0
 20 38  1  0  0  0  0
M  END
