 xtb: 6.7.1 (edcfbbe)
          04092507313D

 38 37  0     0  0            999 V2000
    4.5315   -3.1069   -1.7939 C   0  0  0  0  0  0  0  0  0  0  0  0
    3.0327   -2.9252   -1.9762 C   0  0  0  0  0  0  0  0  0  0  0  0
    2.5797   -1.7209   -1.3301 O   0  0  0  0  0  0  0  0  0  0  0  0
    2.2451   -1.7784   -0.0574 C   0  0  0  0  0  0  0  0  0  0  0  0
    2.2861   -2.7790    0.6227 O   0  0  0  0  0  0  0  0  0  0  0  0
    1.8054   -0.4273    0.4782 C   0  0  0  0  0  0  0  0  0  0  0  0
    1.0606    0.3955   -0.5716 C   0  0  0  0  0  0  0  0  0  0  0  0
    1.7128    0.5940   -1.4249 H   0  0  0  0  0  0  0  0  0  0  0  0
    0.5661    1.6994    0.0184 C   0  0  0  0  0  0  0  0  0  0  0  0
   -0.6208    1.9605    0.1003 O   0  0  0  0  0  0  0  0  0  0  0  0
    1.5335    2.4588    0.4344 O   0  0  0  0  0  0  0  0  0  0  0  0
    1.2038    3.7250    1.0526 C   0  0  0  0  0  0  0  0  0  0  0  0
    0.9893    4.8007    0.0015 C   0  0  0  0  0  0  0  0  0  0  0  0
   -0.3829   -0.4889   -1.2592 S   0  0  0  0  0  0  0  0  0  0  0  0
   -1.8279   -0.1657    0.2475 P   0  0  0  0  0  0  0  0  0  0  0  0
   -1.4391    0.0380    2.1714 S   0  0  0  0  0  0  0  0  0  0  0  0
   -3.0424    0.7188   -0.2981 O   0  0  0  0  0  0  0  0  0  0  0  0
   -3.3711    2.0474    0.1067 C   0  0  0  0  0  0  0  0  0  0  0  0
   -2.4551   -1.6167   -0.0570 O   0  0  0  0  0  0  0  0  0  0  0  0
   -3.5932   -2.1014    0.6583 C   0  0  0  0  0  0  0  0  0  0  0  0
    4.8563   -3.9816   -2.3475 H   0  0  0  0  0  0  0  0  0  0  0  0
    5.0619   -2.2328   -2.1607 H   0  0  0  0  0  0  0  0  0  0  0  0
    4.7647   -3.2496   -0.7412 H   0  0  0  0  0  0  0  0  0  0  0  0
    2.4845   -3.7736   -1.5574 H   0  0  0  0  0  0  0  0  0  0  0  0
    2.7708   -2.7849   -3.0249 H   0  0  0  0  0  0  0  0  0  0  0  0
    2.6962    0.1212    0.7941 H   0  0  0  0  0  0  0  0  0  0  0  0
    1.1822   -0.6046    1.3584 H   0  0  0  0  0  0  0  0  0  0  0  0
    0.3105    3.5888    1.6677 H   0  0  0  0  0  0  0  0  0  0  0  0
    2.0674    3.9452    1.6795 H   0  0  0  0  0  0  0  0  0  0  0  0
    1.8704    4.8911   -0.6274 H   0  0  0  0  0  0  0  0  0  0  0  0
    0.1320    4.5556   -0.6209 H   0  0  0  0  0  0  0  0  0  0  0  0
    0.8041    5.7485    0.4957 H   0  0  0  0  0  0  0  0  0  0  0  0
   -3.0369    2.2217    1.1303 H   0  0  0  0  0  0  0  0  0  0  0  0
   -4.4547    2.1183    0.0410 H   0  0  0  0  0  0  0  0  0  0  0  0
   -2.8944    2.7597   -0.5629 H   0  0  0  0  0  0  0  0  0  0  0  0
   -3.6455   -3.1658    0.4435 H   0  0  0  0  0  0  0  0  0  0  0  0
   -4.4946   -1.5948    0.3146 H   0  0  0  0  0  0  0  0  0  0  0  0
   -3.4608   -1.9369    1.7301 H   0  0  0  0  0  0  0  0  0  0  0  0
  1  2  1  0  0  0  0
  2  3  1  0  0  0  0
  3  4  1  0  0  0  0
  4  5  2  0  0  0  0
  4  6  1  0  0  0  0
  6  7  1  0  0  0  0
  7  8  1  0  0  0  0
  7  9  1  0  0  0  0
  9 10  2  0  0  0  0
  9 11  4  0  0  0  0
 11 12  1  0  0  0  0
 12 13  1  0  0  0  0
  7 14  1  0  0  0  0
 14 15  1  0  0  0  0
 15 16  2  0  0  0  0
 15 17  2  0  0  0  0
 17 18  1  0  0  0  0
 15 19  1  0  0  0  0
 19 20  1  0  0  0  0
  1 21  1  0  0  0  0
  1 22  1  0  0  0  0
  1 23  1  0  0  0  0
  2 24  1  0  0  0  0
  2 25  1  0  0  0  0
  6 26  1  0  0  0  0
  6 27  1  0  0  0  0
 12 28  1  0  0  0  0
 12 29  1  0  0  0  0
 13 30  1  0  0  0  0
 13 31  1  0  0  0  0
 13 32  1  0  0  0  0
 18 33  1  0  0  0  0
 18 34  1  0  0  0  0
 18 35  1  0  0  0  0
 20 36  1  0  0  0  0
 20 37  1  0  0  0  0
 20 38  1  0  0  0  0
M  END
