 xtb: 6.7.1 (edcfbbe)
          04092505213D

 41 40  0     0  0            999 V2000
    2.4469   -3.0455   -1.1042 C   0  0  0  0  0  0  0  0  0  0  0  0
    3.5749   -2.3476   -0.3759 C   0  0  0  0  0  0  0  0  0  0  0  0
    3.5721   -0.9149   -0.5952 O   0  0  0  0  0  0  0  0  0  0  0  0
    2.4329    0.0856   -0.1716 P   0  0  0  0  0  0  0  0  0  0  0  0
    3.0843    1.9205    0.0075 S   0  0  0  0  0  0  0  0  0  0  0  0
    1.8586   -0.5772    1.1581 O   0  0  0  0  0  0  0  0  0  0  0  0
    1.2747    0.1559    2.2496 C   0  0  0  0  0  0  0  0  0  0  0  0
    1.9566   -0.2613    3.5376 C   0  0  0  0  0  0  0  0  0  0  0  0
    0.9316   -0.1820   -1.6762 S   0  0  0  0  0  0  0  0  0  0  0  0
    0.2237    1.4767   -1.6264 C   0  0  0  0  0  0  0  0  0  0  0  0
   -0.6787    1.8210   -0.0928 S   0  0  0  0  0  0  0  0  0  0  0  0
   -2.1268    0.2864   -0.3342 P   0  0  0  0  0  0  0  0  0  0  0  0
   -2.7420   -0.1085   -2.1428 S   0  0  0  0  0  0  0  0  0  0  0  0
   -3.3151    0.7572    0.5987 O   0  0  0  0  0  0  0  0  0  0  0  0
   -3.1251    1.1046    1.9940 C   0  0  0  0  0  0  0  0  0  0  0  0
   -4.4719    1.5194    2.5478 C   0  0  0  0  0  0  0  0  0  0  0  0
   -1.3949   -0.9077    0.4464 O   0  0  0  0  0  0  0  0  0  0  0  0
   -1.5702   -2.2864    0.0697 C   0  0  0  0  0  0  0  0  0  0  0  0
   -2.9402   -2.7944    0.4700 C   0  0  0  0  0  0  0  0  0  0  0  0
    1.4870   -2.7269   -0.7023 H   0  0  0  0  0  0  0  0  0  0  0  0
    2.4735   -2.8076   -2.1647 H   0  0  0  0  0  0  0  0  0  0  0  0
    2.5477   -4.1186   -0.9747 H   0  0  0  0  0  0  0  0  0  0  0  0
    4.5508   -2.6531   -0.7559 H   0  0  0  0  0  0  0  0  0  0  0  0
    3.5188   -2.5288    0.6990 H   0  0  0  0  0  0  0  0  0  0  0  0
    1.3985    1.2289    2.0696 H   0  0  0  0  0  0  0  0  0  0  0  0
    0.2098   -0.0880    2.2611 H   0  0  0  0  0  0  0  0  0  0  0  0
    1.8617   -1.3334    3.6840 H   0  0  0  0  0  0  0  0  0  0  0  0
    3.0114   -0.0000    3.5008 H   0  0  0  0  0  0  0  0  0  0  0  0
    1.4913    0.2583    4.3687 H   0  0  0  0  0  0  0  0  0  0  0  0
   -0.4578    1.5483   -2.4733 H   0  0  0  0  0  0  0  0  0  0  0  0
    1.0192    2.2196   -1.6856 H   0  0  0  0  0  0  0  0  0  0  0  0
   -2.7266    0.2315    2.5162 H   0  0  0  0  0  0  0  0  0  0  0  0
   -2.3993    1.9210    2.0481 H   0  0  0  0  0  0  0  0  0  0  0  0
   -5.1811    0.7015    2.4599 H   0  0  0  0  0  0  0  0  0  0  0  0
   -4.3594    1.7894    3.5928 H   0  0  0  0  0  0  0  0  0  0  0  0
   -4.8541    2.3726    1.9950 H   0  0  0  0  0  0  0  0  0  0  0  0
   -1.4236   -2.3745   -1.0113 H   0  0  0  0  0  0  0  0  0  0  0  0
   -0.7724   -2.8113    0.5979 H   0  0  0  0  0  0  0  0  0  0  0  0
   -3.7078   -2.2185   -0.0469 H   0  0  0  0  0  0  0  0  0  0  0  0
   -3.0340   -3.8385    0.1888 H   0  0  0  0  0  0  0  0  0  0  0  0
   -3.0863   -2.6956    1.5425 H   0  0  0  0  0  0  0  0  0  0  0  0
  1  2  1  0  0  0  0
  2  3  1  0  0  0  0
  3  4  2  0  0  0  0
  4  5  2  0  0  0  0
  4  6  2  0  0  0  0
  6  7  1  0  0  0  0
  7  8  1  0  0  0  0
  4  9  1  0  0  0  0
  9 10  1  0  0  0  0
 10 11  1  0  0  0  0
 11 12  1  0  0  0  0
 12 13  2  0  0  0  0
 12 14  2  0  0  0  0
 14 15  1  0  0  0  0
 15 16  1  0  0  0  0
 12 17  1  0  0  0  0
 17 18  1  0  0  0  0
 18 19  1  0  0  0  0
  1 20  1  0  0  0  0
  1 21  1  0  0  0  0
  1 22  1  0  0  0  0
  2 23  1  0  0  0  0
  2 24  1  0  0  0  0
  7 25  1  0  0  0  0
  7 26  1  0  0  0  0
  8 27  1  0  0  0  0
  8 28  1  0  0  0  0
  8 29  1  0  0  0  0
 10 30  1  0  0  0  0
 10 31  1  0  0  0  0
 15 32  1  0  0  0  0
 15 33  1  0  0  0  0
 16 34  1  0  0  0  0
 16 35  1  0  0  0  0
 16 36  1  0  0  0  0
 18 37  1  0  0  0  0
 18 38  1  0  0  0  0
 19 39  1  0  0  0  0
 19 40  1  0  0  0  0
 19 41  1  0  0  0  0
M  END
