 xtb: 6.7.1 (edcfbbe)
          04092505203D

 41 40  0     0  0            999 V2000
    4.4746    0.2063   -2.3079 C   0  0  0  0  0  0  0  0  0  0  0  0
    3.0930   -0.3833   -2.4973 C   0  0  0  0  0  0  0  0  0  0  0  0
    2.5783   -0.9364   -1.2671 O   0  0  0  0  0  0  0  0  0  0  0  0
    2.1198   -0.0218   -0.0596 P   0  0  0  0  0  0  0  0  0  0  0  0
    1.4152    1.7414   -0.5672 S   0  0  0  0  0  0  0  0  0  0  0  0
    3.4309    0.0758    0.8383 O   0  0  0  0  0  0  0  0  0  0  0  0
    3.5701    1.0461    1.8867 C   0  0  0  0  0  0  0  0  0  0  0  0
    2.6386    0.7602    3.0474 C   0  0  0  0  0  0  0  0  0  0  0  0
    0.9951   -1.4735    0.9901 S   0  0  0  0  0  0  0  0  0  0  0  0
   -0.1266   -2.0393   -0.3300 C   0  0  0  0  0  0  0  0  0  0  0  0
   -0.9839   -0.7152   -1.2162 S   0  0  0  0  0  0  0  0  0  0  0  0
   -2.1740    0.0260    0.4022 P   0  0  0  0  0  0  0  0  0  0  0  0
   -1.2787    1.0118    1.8390 S   0  0  0  0  0  0  0  0  0  0  0  0
   -2.9138   -1.2506    0.9631 O   0  0  0  0  0  0  0  0  0  0  0  0
   -4.1444   -1.8192    0.4478 C   0  0  0  0  0  0  0  0  0  0  0  0
   -3.9963   -2.3844   -0.9493 C   0  0  0  0  0  0  0  0  0  0  0  0
   -3.3340    0.8262   -0.3291 O   0  0  0  0  0  0  0  0  0  0  0  0
   -3.2210    2.2199   -0.6628 C   0  0  0  0  0  0  0  0  0  0  0  0
   -2.2540    2.4515   -1.8054 C   0  0  0  0  0  0  0  0  0  0  0  0
    5.1392   -0.5290   -1.8622 H   0  0  0  0  0  0  0  0  0  0  0  0
    4.8690    0.5175   -3.2701 H   0  0  0  0  0  0  0  0  0  0  0  0
    4.4187    1.0731   -1.6507 H   0  0  0  0  0  0  0  0  0  0  0  0
    3.1041   -1.2326   -3.1814 H   0  0  0  0  0  0  0  0  0  0  0  0
    2.3920    0.3778   -2.8545 H   0  0  0  0  0  0  0  0  0  0  0  0
    4.6176    0.9689    2.1811 H   0  0  0  0  0  0  0  0  0  0  0  0
    3.3695    2.0398    1.4717 H   0  0  0  0  0  0  0  0  0  0  0  0
    2.8441    1.4517    3.8580 H   0  0  0  0  0  0  0  0  0  0  0  0
    1.6000    0.8884    2.7372 H   0  0  0  0  0  0  0  0  0  0  0  0
    2.7721   -0.2604    3.3981 H   0  0  0  0  0  0  0  0  0  0  0  0
   -0.8487   -2.6851    0.1661 H   0  0  0  0  0  0  0  0  0  0  0  0
    0.4441   -2.5837   -1.0787 H   0  0  0  0  0  0  0  0  0  0  0  0
   -4.3773   -2.5980    1.1758 H   0  0  0  0  0  0  0  0  0  0  0  0
   -4.9128   -1.0449    0.4733 H   0  0  0  0  0  0  0  0  0  0  0  0
   -3.7637   -1.5914   -1.6561 H   0  0  0  0  0  0  0  0  0  0  0  0
   -3.2064   -3.1303   -0.9833 H   0  0  0  0  0  0  0  0  0  0  0  0
   -4.9340   -2.8497   -1.2374 H   0  0  0  0  0  0  0  0  0  0  0  0
   -4.2389    2.5058   -0.9323 H   0  0  0  0  0  0  0  0  0  0  0  0
   -2.9018    2.7680    0.2296 H   0  0  0  0  0  0  0  0  0  0  0  0
   -2.5047    1.8162   -2.6510 H   0  0  0  0  0  0  0  0  0  0  0  0
   -2.2989    3.4922   -2.1095 H   0  0  0  0  0  0  0  0  0  0  0  0
   -1.2349    2.2298   -1.4885 H   0  0  0  0  0  0  0  0  0  0  0  0
  1  2  1  0  0  0  0
  2  3  1  0  0  0  0
  3  4  2  0  0  0  0
  4  5  2  0  0  0  0
  4  6  2  0  0  0  0
  6  7  1  0  0  0  0
  7  8  1  0  0  0  0
  4  9  1  0  0  0  0
  9 10  1  0  0  0  0
 10 11  1  0  0  0  0
 11 12  1  0  0  0  0
 12 13  2  0  0  0  0
 12 14  2  0  0  0  0
 14 15  1  0  0  0  0
 15 16  1  0  0  0  0
 12 17  2  0  0  0  0
 17 18  1  0  0  0  0
 18 19  1  0  0  0  0
  1 20  1  0  0  0  0
  1 21  1  0  0  0  0
  1 22  1  0  0  0  0
  2 23  1  0  0  0  0
  2 24  1  0  0  0  0
  7 25  1  0  0  0  0
  7 26  1  0  0  0  0
  8 27  1  0  0  0  0
  8 28  1  0  0  0  0
  8 29  1  0  0  0  0
 10 30  1  0  0  0  0
 10 31  1  0  0  0  0
 15 32  1  0  0  0  0
 15 33  1  0  0  0  0
 16 34  1  0  0  0  0
 16 35  1  0  0  0  0
 16 36  1  0  0  0  0
 18 37  1  0  0  0  0
 18 38  1  0  0  0  0
 19 39  1  0  0  0  0
 19 40  1  0  0  0  0
 19 41  1  0  0  0  0
M  END
