 xtb: 6.7.1 (edcfbbe)
          04092505213D

 41 40  0     0  0            999 V2000
    3.4767   -2.3267    1.9298 C   0  0  0  0  0  0  0  0  0  0  0  0
    3.5460   -0.8231    1.7572 C   0  0  0  0  0  0  0  0  0  0  0  0
    3.6048   -0.4675    0.3511 O   0  0  0  0  0  0  0  0  0  0  0  0
    2.3476    0.0051   -0.4857 P   0  0  0  0  0  0  0  0  0  0  0  0
    2.8461    0.5334   -2.2983 S   0  0  0  0  0  0  0  0  0  0  0  0
    1.6253    1.1342    0.4045 O   0  0  0  0  0  0  0  0  0  0  0  0
    1.7943    2.5349    0.1320 C   0  0  0  0  0  0  0  0  0  0  0  0
    3.1601    3.0186    0.5743 C   0  0  0  0  0  0  0  0  0  0  0  0
    0.9348   -1.5490   -0.2867 S   0  0  0  0  0  0  0  0  0  0  0  0
   -0.1463   -1.0486   -1.6501 C   0  0  0  0  0  0  0  0  0  0  0  0
   -0.8162    0.6380   -1.4968 S   0  0  0  0  0  0  0  0  0  0  0  0
   -2.3747    0.2591   -0.1183 P   0  0  0  0  0  0  0  0  0  0  0  0
   -3.3051    1.8445    0.5549 S   0  0  0  0  0  0  0  0  0  0  0  0
   -1.7519   -0.6817    1.0026 O   0  0  0  0  0  0  0  0  0  0  0  0
   -1.0950   -0.1598    2.1725 C   0  0  0  0  0  0  0  0  0  0  0  0
   -0.8100   -1.3299    3.0916 C   0  0  0  0  0  0  0  0  0  0  0  0
   -3.2209   -0.7767   -0.9672 O   0  0  0  0  0  0  0  0  0  0  0  0
   -4.6125   -1.0314   -0.6779 C   0  0  0  0  0  0  0  0  0  0  0  0
   -4.7932   -1.7203    0.6578 C   0  0  0  0  0  0  0  0  0  0  0  0
    3.5155   -2.5632    2.9884 H   0  0  0  0  0  0  0  0  0  0  0  0
    2.5533   -2.7184    1.5086 H   0  0  0  0  0  0  0  0  0  0  0  0
    4.3165   -2.7968    1.4260 H   0  0  0  0  0  0  0  0  0  0  0  0
    4.4704   -0.4205    2.1748 H   0  0  0  0  0  0  0  0  0  0  0  0
    2.6861   -0.3285    2.2149 H   0  0  0  0  0  0  0  0  0  0  0  0
    1.6495    2.7010   -0.9405 H   0  0  0  0  0  0  0  0  0  0  0  0
    0.9874    3.0194    0.6853 H   0  0  0  0  0  0  0  0  0  0  0  0
    3.2439    4.0834    0.3818 H   0  0  0  0  0  0  0  0  0  0  0  0
    3.3044    2.8314    1.6352 H   0  0  0  0  0  0  0  0  0  0  0  0
    3.9325    2.4948    0.0113 H   0  0  0  0  0  0  0  0  0  0  0  0
   -0.9629   -1.7642   -1.6890 H   0  0  0  0  0  0  0  0  0  0  0  0
    0.4298   -1.0466   -2.5748 H   0  0  0  0  0  0  0  0  0  0  0  0
   -0.1710    0.3379    1.8643 H   0  0  0  0  0  0  0  0  0  0  0  0
   -1.7535    0.5808    2.6378 H   0  0  0  0  0  0  0  0  0  0  0  0
   -0.2969   -0.9714    3.9777 H   0  0  0  0  0  0  0  0  0  0  0  0
   -1.7391   -1.8097    3.3843 H   0  0  0  0  0  0  0  0  0  0  0  0
   -0.1853   -2.0545    2.5764 H   0  0  0  0  0  0  0  0  0  0  0  0
   -5.1486   -0.0776   -0.6971 H   0  0  0  0  0  0  0  0  0  0  0  0
   -4.9392   -1.6582   -1.5086 H   0  0  0  0  0  0  0  0  0  0  0  0
   -5.8378   -1.9860    0.7864 H   0  0  0  0  0  0  0  0  0  0  0  0
   -4.1816   -2.6175    0.7052 H   0  0  0  0  0  0  0  0  0  0  0  0
   -4.4983   -1.0469    1.4614 H   0  0  0  0  0  0  0  0  0  0  0  0
  1  2  1  0  0  0  0
  2  3  1  0  0  0  0
  3  4  2  0  0  0  0
  4  5  2  0  0  0  0
  4  6  1  0  0  0  0
  6  7  1  0  0  0  0
  7  8  1  0  0  0  0
  4  9  1  0  0  0  0
  9 10  1  0  0  0  0
 10 11  1  0  0  0  0
 11 12  1  0  0  0  0
 12 13  2  0  0  0  0
 12 14  2  0  0  0  0
 14 15  1  0  0  0  0
 15 16  1  0  0  0  0
 12 17  2  0  0  0  0
 17 18  1  0  0  0  0
 18 19  1  0  0  0  0
  1 20  1  0  0  0  0
  1 21  1  0  0  0  0
  1 22  1  0  0  0  0
  2 23  1  0  0  0  0
  2 24  1  0  0  0  0
  7 25  1  0  0  0  0
  7 26  1  0  0  0  0
  8 27  1  0  0  0  0
  8 28  1  0  0  0  0
  8 29  1  0  0  0  0
 10 30  1  0  0  0  0
 10 31  1  0  0  0  0
 15 32  1  0  0  0  0
 15 33  1  0  0  0  0
 16 34  1  0  0  0  0
 16 35  1  0  0  0  0
 16 36  1  0  0  0  0
 18 37  1  0  0  0  0
 18 38  1  0  0  0  0
 19 39  1  0  0  0  0
 19 40  1  0  0  0  0
 19 41  1  0  0  0  0
M  END
