 xtb: 6.7.1 (edcfbbe)
          04092505213D

 41 40  0     0  0            999 V2000
    2.9635   -2.7062    1.3631 C   0  0  0  0  0  0  0  0  0  0  0  0
    1.6649   -2.2193    0.7529 C   0  0  0  0  0  0  0  0  0  0  0  0
    1.5768   -0.7861    0.8135 O   0  0  0  0  0  0  0  0  0  0  0  0
    2.2995    0.1764   -0.2394 P   0  0  0  0  0  0  0  0  0  0  0  0
    3.0141   -0.6693   -1.8474 S   0  0  0  0  0  0  0  0  0  0  0  0
    3.4363    0.9157    0.5747 O   0  0  0  0  0  0  0  0  0  0  0  0
    3.2620    1.4921    1.8939 C   0  0  0  0  0  0  0  0  0  0  0  0
    2.9745    2.9772    1.8056 C   0  0  0  0  0  0  0  0  0  0  0  0
    0.7930    1.6427   -0.5332 S   0  0  0  0  0  0  0  0  0  0  0  0
   -0.0145    0.8321   -1.9328 C   0  0  0  0  0  0  0  0  0  0  0  0
   -0.6795   -0.8070   -1.5305 S   0  0  0  0  0  0  0  0  0  0  0  0
   -2.1550   -0.1513   -0.1741 P   0  0  0  0  0  0  0  0  0  0  0  0
   -3.0480    1.5476   -0.5893 S   0  0  0  0  0  0  0  0  0  0  0  0
   -1.3921   -0.2371    1.2044 O   0  0  0  0  0  0  0  0  0  0  0  0
   -1.8200    0.4810    2.3867 C   0  0  0  0  0  0  0  0  0  0  0  0
   -0.6067    1.1097    3.0403 C   0  0  0  0  0  0  0  0  0  0  0  0
   -3.1335   -1.3992   -0.0618 O   0  0  0  0  0  0  0  0  0  0  0  0
   -4.1621   -1.6602   -1.0380 C   0  0  0  0  0  0  0  0  0  0  0  0
   -5.2391   -2.4927   -0.3718 C   0  0  0  0  0  0  0  0  0  0  0  0
    3.0489   -2.3731    2.3939 H   0  0  0  0  0  0  0  0  0  0  0  0
    2.9921   -3.7907    1.3310 H   0  0  0  0  0  0  0  0  0  0  0  0
    3.8042   -2.3127    0.7924 H   0  0  0  0  0  0  0  0  0  0  0  0
    0.7918   -2.5678    1.3074 H   0  0  0  0  0  0  0  0  0  0  0  0
    1.5853   -2.5358   -0.2921 H   0  0  0  0  0  0  0  0  0  0  0  0
    2.4603    0.9607    2.4103 H   0  0  0  0  0  0  0  0  0  0  0  0
    4.2145    1.3050    2.3927 H   0  0  0  0  0  0  0  0  0  0  0  0
    3.7632    3.4770    1.2503 H   0  0  0  0  0  0  0  0  0  0  0  0
    2.0279    3.1565    1.2994 H   0  0  0  0  0  0  0  0  0  0  0  0
    2.9252    3.3885    2.8089 H   0  0  0  0  0  0  0  0  0  0  0  0
    0.7089    0.6804   -2.7332 H   0  0  0  0  0  0  0  0  0  0  0  0
   -0.8265    1.4888   -2.2448 H   0  0  0  0  0  0  0  0  0  0  0  0
   -2.5507    1.2422    2.0936 H   0  0  0  0  0  0  0  0  0  0  0  0
   -2.2982   -0.2493    3.0425 H   0  0  0  0  0  0  0  0  0  0  0  0
   -0.9105    1.5990    3.9600 H   0  0  0  0  0  0  0  0  0  0  0  0
    0.1290    0.3424    3.2648 H   0  0  0  0  0  0  0  0  0  0  0  0
   -0.1628    1.8441    2.3728 H   0  0  0  0  0  0  0  0  0  0  0  0
   -4.5583   -0.7026   -1.3925 H   0  0  0  0  0  0  0  0  0  0  0  0
   -3.7054   -2.1926   -1.8763 H   0  0  0  0  0  0  0  0  0  0  0  0
   -4.8112   -3.4155    0.0088 H   0  0  0  0  0  0  0  0  0  0  0  0
   -5.6807   -1.9415    0.4537 H   0  0  0  0  0  0  0  0  0  0  0  0
   -6.0093   -2.7258   -1.0995 H   0  0  0  0  0  0  0  0  0  0  0  0
  1  2  1  0  0  0  0
  2  3  1  0  0  0  0
  3  4  1  0  0  0  0
  4  5  2  0  0  0  0
  4  6  2  0  0  0  0
  6  7  1  0  0  0  0
  7  8  1  0  0  0  0
  4  9  1  0  0  0  0
  9 10  1  0  0  0  0
 10 11  1  0  0  0  0
 11 12  1  0  0  0  0
 12 13  2  0  0  0  0
 12 14  2  0  0  0  0
 14 15  1  0  0  0  0
 15 16  1  0  0  0  0
 12 17  2  0  0  0  0
 17 18  1  0  0  0  0
 18 19  1  0  0  0  0
  1 20  1  0  0  0  0
  1 21  1  0  0  0  0
  1 22  1  0  0  0  0
  2 23  1  0  0  0  0
  2 24  1  0  0  0  0
  7 25  1  0  0  0  0
  7 26  1  0  0  0  0
  8 27  1  0  0  0  0
  8 28  1  0  0  0  0
  8 29  1  0  0  0  0
 10 30  1  0  0  0  0
 10 31  1  0  0  0  0
 15 32  1  0  0  0  0
 15 33  1  0  0  0  0
 16 34  1  0  0  0  0
 16 35  1  0  0  0  0
 16 36  1  0  0  0  0
 18 37  1  0  0  0  0
 18 38  1  0  0  0  0
 19 39  1  0  0  0  0
 19 40  1  0  0  0  0
 19 41  1  0  0  0  0
M  END
