 xtb: 6.7.1 (edcfbbe)
          04032520243D

 21 21  0     0  0            999 V2000
   -2.5162    0.7843   -0.0002 C   0  0  0  0  0  0  0  0  0  0  0  0
   -1.2128    0.0373   -0.0001 C   0  0  0  0  0  0  0  0  0  0  0  0
   -1.2349   -1.3519    0.0000 C   0  0  0  0  0  0  0  0  0  0  0  0
   -0.0630   -2.0836    0.0001 C   0  0  0  0  0  0  0  0  0  0  0  0
    1.1515   -1.4243    0.0001 C   0  0  0  0  0  0  0  0  0  0  0  0
    1.2034   -0.0376   -0.0000 C   0  0  0  0  0  0  0  0  0  0  0  0
    0.0160    0.7025   -0.0000 C   0  0  0  0  0  0  0  0  0  0  0  0
    0.1011    2.2010    0.0003 C   0  0  0  0  0  0  0  0  0  0  0  0
    2.5327    0.6554   -0.0003 C   0  0  0  0  0  0  0  0  0  0  0  0
   -2.6011    1.4154   -0.8835 H   0  0  0  0  0  0  0  0  0  0  0  0
   -3.3483    0.0850   -0.0002 H   0  0  0  0  0  0  0  0  0  0  0  0
   -2.6013    1.4157    0.8829 H   0  0  0  0  0  0  0  0  0  0  0  0
   -2.1854   -1.8667    0.0001 H   0  0  0  0  0  0  0  0  0  0  0  0
   -0.0963   -3.1633    0.0004 H   0  0  0  0  0  0  0  0  0  0  0  0
    2.0713   -1.9919    0.0002 H   0  0  0  0  0  0  0  0  0  0  0  0
    0.6469    2.5459   -0.8771 H   0  0  0  0  0  0  0  0  0  0  0  0
   -0.8786    2.6635   -0.0021 H   0  0  0  0  0  0  0  0  0  0  0  0
    0.6423    2.5456    0.8808 H   0  0  0  0  0  0  0  0  0  0  0  0
    3.3413   -0.0708    0.0008 H   0  0  0  0  0  0  0  0  0  0  0  0
    2.6366    1.2883   -0.8806 H   0  0  0  0  0  0  0  0  0  0  0  0
    2.6360    1.2903    0.8786 H   0  0  0  0  0  0  0  0  0  0  0  0
  1  2  1  0  0  0  0
  2  3  4  0  0  0  0
  3  4  4  0  0  0  0
  4  5  4  0  0  0  0
  5  6  4  0  0  0  0
  2  7  4  0  0  0  0
  6  7  4  0  0  0  0
  7  8  1  0  0  0  0
  6  9  1  0  0  0  0
  1 10  1  0  0  0  0
  1 11  1  0  0  0  0
  1 12  1  0  0  0  0
  3 13  1  0  0  0  0
  4 14  1  0  0  0  0
  5 15  1  0  0  0  0
  8 16  1  0  0  0  0
  8 17  1  0  0  0  0
  8 18  1  0  0  0  0
  9 19  1  0  0  0  0
  9 20  1  0  0  0  0
  9 21  1  0  0  0  0
M  END
