 xtb: 6.7.1 (edcfbbe)
          04092505213D

 41 40  0     0  0            999 V2000
    3.2758   -1.9917   -2.5804 C   0  0  0  0  0  0  0  0  0  0  0  0
    3.8550   -0.6363   -2.2248 C   0  0  0  0  0  0  0  0  0  0  0  0
    3.6710   -0.3250   -0.8361 O   0  0  0  0  0  0  0  0  0  0  0  0
    2.3008    0.1846   -0.2248 P   0  0  0  0  0  0  0  0  0  0  0  0
    1.2005    1.1912   -1.5044 S   0  0  0  0  0  0  0  0  0  0  0  0
    2.9805    0.9186    0.9946 O   0  0  0  0  0  0  0  0  0  0  0  0
    2.3281    1.5459    2.1108 C   0  0  0  0  0  0  0  0  0  0  0  0
    1.9711    2.9846    1.7941 C   0  0  0  0  0  0  0  0  0  0  0  0
    1.3716   -1.5104    0.6664 S   0  0  0  0  0  0  0  0  0  0  0  0
    0.0913   -1.8690   -0.5880 C   0  0  0  0  0  0  0  0  0  0  0  0
   -1.5634   -2.0994    0.1123 S   0  0  0  0  0  0  0  0  0  0  0  0
   -2.1428   -0.0896    0.3156 P   0  0  0  0  0  0  0  0  0  0  0  0
   -1.1069    1.1261    1.4614 S   0  0  0  0  0  0  0  0  0  0  0  0
   -3.6782   -0.1660    0.7235 O   0  0  0  0  0  0  0  0  0  0  0  0
   -4.1082   -0.1978    2.0950 C   0  0  0  0  0  0  0  0  0  0  0  0
   -3.7022   -1.4859    2.7812 C   0  0  0  0  0  0  0  0  0  0  0  0
   -2.2283    0.2963   -1.2159 O   0  0  0  0  0  0  0  0  0  0  0  0
   -2.4838    1.6511   -1.6476 C   0  0  0  0  0  0  0  0  0  0  0  0
   -2.1207    1.7469   -3.1139 C   0  0  0  0  0  0  0  0  0  0  0  0
    3.6325   -2.7451   -1.8828 H   0  0  0  0  0  0  0  0  0  0  0  0
    2.1886   -1.9547   -2.5406 H   0  0  0  0  0  0  0  0  0  0  0  0
    3.5814   -2.2596   -3.5868 H   0  0  0  0  0  0  0  0  0  0  0  0
    3.3957    0.1535   -2.8290 H   0  0  0  0  0  0  0  0  0  0  0  0
    4.9379   -0.6172   -2.3558 H   0  0  0  0  0  0  0  0  0  0  0  0
    1.4361    0.9788    2.3896 H   0  0  0  0  0  0  0  0  0  0  0  0
    3.0645    1.4871    2.9145 H   0  0  0  0  0  0  0  0  0  0  0  0
    2.8532    3.5277    1.4664 H   0  0  0  0  0  0  0  0  0  0  0  0
    1.2207    3.0191    1.0066 H   0  0  0  0  0  0  0  0  0  0  0  0
    1.5600    3.4537    2.6818 H   0  0  0  0  0  0  0  0  0  0  0  0
    0.3362   -2.8154   -1.0626 H   0  0  0  0  0  0  0  0  0  0  0  0
    0.0660   -1.0444   -1.3057 H   0  0  0  0  0  0  0  0  0  0  0  0
   -3.6792    0.6669    2.6122 H   0  0  0  0  0  0  0  0  0  0  0  0
   -5.1922   -0.0947    2.0330 H   0  0  0  0  0  0  0  0  0  0  0  0
   -2.6165   -1.5354    2.8631 H   0  0  0  0  0  0  0  0  0  0  0  0
   -4.1321   -1.5159    3.7772 H   0  0  0  0  0  0  0  0  0  0  0  0
   -4.0479   -2.3436    2.2097 H   0  0  0  0  0  0  0  0  0  0  0  0
   -3.5417    1.8645   -1.4766 H   0  0  0  0  0  0  0  0  0  0  0  0
   -1.8750    2.3312   -1.0420 H   0  0  0  0  0  0  0  0  0  0  0  0
   -2.6737    1.0044   -3.6814 H   0  0  0  0  0  0  0  0  0  0  0  0
   -2.3660    2.7395   -3.4766 H   0  0  0  0  0  0  0  0  0  0  0  0
   -1.0547    1.5742   -3.2415 H   0  0  0  0  0  0  0  0  0  0  0  0
  1  2  1  0  0  0  0
  2  3  1  0  0  0  0
  3  4  2  0  0  0  0
  4  5  2  0  0  0  0
  4  6  2  0  0  0  0
  6  7  1  0  0  0  0
  7  8  1  0  0  0  0
  4  9  1  0  0  0  0
  9 10  1  0  0  0  0
 10 11  1  0  0  0  0
 11 12  1  0  0  0  0
 12 13  2  0  0  0  0
 12 14  2  0  0  0  0
 14 15  1  0  0  0  0
 15 16  1  0  0  0  0
 12 17  2  0  0  0  0
 17 18  1  0  0  0  0
 18 19  1  0  0  0  0
  1 20  1  0  0  0  0
  1 21  1  0  0  0  0
  1 22  1  0  0  0  0
  2 23  1  0  0  0  0
  2 24  1  0  0  0  0
  7 25  1  0  0  0  0
  7 26  1  0  0  0  0
  8 27  1  0  0  0  0
  8 28  1  0  0  0  0
  8 29  1  0  0  0  0
 10 30  1  0  0  0  0
 10 31  1  0  0  0  0
 15 32  1  0  0  0  0
 15 33  1  0  0  0  0
 16 34  1  0  0  0  0
 16 35  1  0  0  0  0
 16 36  1  0  0  0  0
 18 37  1  0  0  0  0
 18 38  1  0  0  0  0
 19 39  1  0  0  0  0
 19 40  1  0  0  0  0
 19 41  1  0  0  0  0
M  END
