 xtb: 6.7.1 (edcfbbe)
          04032519443D

  7  6  0     0  0            999 V2000
   -1.2527    0.1649    0.0000 C   0  0  0  0  0  0  0  0  0  0  0  0
    0.1157   -0.4076    0.0000 C   0  0  0  0  0  0  0  0  0  0  0  0
    1.1461    0.2236   -0.0000 O   0  0  0  0  0  0  0  0  0  0  0  0
   -1.2209    1.2505    0.0004 H   0  0  0  0  0  0  0  0  0  0  0  0
   -1.7857   -0.1978   -0.8764 H   0  0  0  0  0  0  0  0  0  0  0  0
   -1.7861   -0.1986    0.8758 H   0  0  0  0  0  0  0  0  0  0  0  0
    0.1492   -1.5128   -0.0001 H   0  0  0  0  0  0  0  0  0  0  0  0
  1  2  1  0  0  0  0
  2  3  2  0  0  0  0
  1  4  1  0  0  0  0
  1  5  1  0  0  0  0
  1  6  1  0  0  0  0
  2  7  1  0  0  0  0
M  END
