 xtb: 6.7.1 (edcfbbe)
          04092505203D

 41 40  0     0  0            999 V2000
    2.8269    2.6266   -0.4161 C   0  0  0  0  0  0  0  0  0  0  0  0
    2.3522    1.5064   -1.3197 C   0  0  0  0  0  0  0  0  0  0  0  0
    1.4832    0.5878   -0.6248 O   0  0  0  0  0  0  0  0  0  0  0  0
    1.9598   -0.5307    0.3887 P   0  0  0  0  0  0  0  0  0  0  0  0
    2.6493    0.0289    2.1420 S   0  0  0  0  0  0  0  0  0  0  0  0
    3.0002   -1.3448   -0.4930 O   0  0  0  0  0  0  0  0  0  0  0  0
    3.9286   -2.2777    0.0896 C   0  0  0  0  0  0  0  0  0  0  0  0
    3.2316   -3.5216    0.6005 C   0  0  0  0  0  0  0  0  0  0  0  0
    0.2064   -1.7016    0.4377 S   0  0  0  0  0  0  0  0  0  0  0  0
   -0.6141   -0.7793    1.7645 C   0  0  0  0  0  0  0  0  0  0  0  0
   -0.9782    0.9431    1.3220 S   0  0  0  0  0  0  0  0  0  0  0  0
   -2.0915    0.6294   -0.4574 P   0  0  0  0  0  0  0  0  0  0  0  0
   -1.2531    0.3170   -2.2068 S   0  0  0  0  0  0  0  0  0  0  0  0
   -3.0548    1.8991   -0.4706 O   0  0  0  0  0  0  0  0  0  0  0  0
   -2.7004    3.1137   -1.1506 C   0  0  0  0  0  0  0  0  0  0  0  0
   -1.4917    3.7759   -0.5207 C   0  0  0  0  0  0  0  0  0  0  0  0
   -3.0665   -0.5022    0.0587 O   0  0  0  0  0  0  0  0  0  0  0  0
   -3.6358   -1.5327   -0.7799 C   0  0  0  0  0  0  0  0  0  0  0  0
   -3.3114   -2.8915   -0.1916 C   0  0  0  0  0  0  0  0  0  0  0  0
    3.4644    2.2337    0.3736 H   0  0  0  0  0  0  0  0  0  0  0  0
    3.3901    3.3447   -1.0036 H   0  0  0  0  0  0  0  0  0  0  0  0
    1.9775    3.1256    0.0448 H   0  0  0  0  0  0  0  0  0  0  0  0
    3.1923    0.9457   -1.7358 H   0  0  0  0  0  0  0  0  0  0  0  0
    1.7247    1.8798   -2.1325 H   0  0  0  0  0  0  0  0  0  0  0  0
    4.6179   -2.5048   -0.7246 H   0  0  0  0  0  0  0  0  0  0  0  0
    4.4607   -1.7725    0.9023 H   0  0  0  0  0  0  0  0  0  0  0  0
    2.5948   -3.2691    1.4474 H   0  0  0  0  0  0  0  0  0  0  0  0
    2.6163   -3.9580   -0.1824 H   0  0  0  0  0  0  0  0  0  0  0  0
    3.9751   -4.2440    0.9214 H   0  0  0  0  0  0  0  0  0  0  0  0
    0.0445   -0.7276    2.6323 H   0  0  0  0  0  0  0  0  0  0  0  0
   -1.5372   -1.3048    1.9952 H   0  0  0  0  0  0  0  0  0  0  0  0
   -2.5041    2.8757   -2.2014 H   0  0  0  0  0  0  0  0  0  0  0  0
   -3.5933    3.7345   -1.0691 H   0  0  0  0  0  0  0  0  0  0  0  0
   -0.6246    3.1222   -0.6253 H   0  0  0  0  0  0  0  0  0  0  0  0
   -1.2879    4.7173   -1.0206 H   0  0  0  0  0  0  0  0  0  0  0  0
   -1.6649    3.9543    0.5379 H   0  0  0  0  0  0  0  0  0  0  0  0
   -4.7116   -1.3498   -0.8000 H   0  0  0  0  0  0  0  0  0  0  0  0
   -3.2285   -1.4327   -1.7917 H   0  0  0  0  0  0  0  0  0  0  0  0
   -3.6994   -2.9644    0.8204 H   0  0  0  0  0  0  0  0  0  0  0  0
   -3.7683   -3.6605   -0.8058 H   0  0  0  0  0  0  0  0  0  0  0  0
   -2.2338   -3.0449   -0.1713 H   0  0  0  0  0  0  0  0  0  0  0  0
  1  2  1  0  0  0  0
  2  3  1  0  0  0  0
  3  4  2  0  0  0  0
  4  5  2  0  0  0  0
  4  6  2  0  0  0  0
  6  7  1  0  0  0  0
  7  8  1  0  0  0  0
  4  9  1  0  0  0  0
  9 10  1  0  0  0  0
 10 11  1  0  0  0  0
 11 12  1  0  0  0  0
 12 13  2  0  0  0  0
 12 14  2  0  0  0  0
 14 15  1  0  0  0  0
 15 16  1  0  0  0  0
 12 17  2  0  0  0  0
 17 18  1  0  0  0  0
 18 19  1  0  0  0  0
  1 20  1  0  0  0  0
  1 21  1  0  0  0  0
  1 22  1  0  0  0  0
  2 23  1  0  0  0  0
  2 24  1  0  0  0  0
  7 25  1  0  0  0  0
  7 26  1  0  0  0  0
  8 27  1  0  0  0  0
  8 28  1  0  0  0  0
  8 29  1  0  0  0  0
 10 30  1  0  0  0  0
 10 31  1  0  0  0  0
 15 32  1  0  0  0  0
 15 33  1  0  0  0  0
 16 34  1  0  0  0  0
 16 35  1  0  0  0  0
 16 36  1  0  0  0  0
 18 37  1  0  0  0  0
 18 38  1  0  0  0  0
 19 39  1  0  0  0  0
 19 40  1  0  0  0  0
 19 41  1  0  0  0  0
M  END
