 xtb: 6.7.1 (edcfbbe)
          04092505213D

 41 40  0     0  0            999 V2000
    2.7289    1.4681   -2.0541 C   0  0  0  0  0  0  0  0  0  0  0  0
    2.5188   -0.0222   -2.2113 C   0  0  0  0  0  0  0  0  0  0  0  0
    1.6895   -0.5775   -1.1641 O   0  0  0  0  0  0  0  0  0  0  0  0
    1.9538   -0.4173    0.3836 P   0  0  0  0  0  0  0  0  0  0  0  0
    1.2091    1.1508    1.3088 S   0  0  0  0  0  0  0  0  0  0  0  0
    3.5281   -0.5946    0.4711 O   0  0  0  0  0  0  0  0  0  0  0  0
    4.2459   -0.4679    1.7166 C   0  0  0  0  0  0  0  0  0  0  0  0
    4.8483    0.9174    1.8478 C   0  0  0  0  0  0  0  0  0  0  0  0
    1.2102   -2.2445    1.1375 S   0  0  0  0  0  0  0  0  0  0  0  0
   -0.4792   -1.7259    1.5313 C   0  0  0  0  0  0  0  0  0  0  0  0
   -1.6065   -1.7838    0.1033 S   0  0  0  0  0  0  0  0  0  0  0  0
   -2.0212    0.2478   -0.3418 P   0  0  0  0  0  0  0  0  0  0  0  0
   -0.9370    1.2886   -1.6043 S   0  0  0  0  0  0  0  0  0  0  0  0
   -2.1636    0.8025    1.1329 O   0  0  0  0  0  0  0  0  0  0  0  0
   -2.1441    2.2136    1.4303 C   0  0  0  0  0  0  0  0  0  0  0  0
   -3.3610    2.9231    0.8780 C   0  0  0  0  0  0  0  0  0  0  0  0
   -3.5420    0.1505   -0.8082 O   0  0  0  0  0  0  0  0  0  0  0  0
   -3.9113   -0.0307   -2.1824 C   0  0  0  0  0  0  0  0  0  0  0  0
   -3.5421   -1.4122   -2.6836 C   0  0  0  0  0  0  0  0  0  0  0  0
    3.2463    1.6769   -1.1182 H   0  0  0  0  0  0  0  0  0  0  0  0
    3.3241    1.8388   -2.8825 H   0  0  0  0  0  0  0  0  0  0  0  0
    1.7693    1.9818   -2.0435 H   0  0  0  0  0  0  0  0  0  0  0  0
    3.4698   -0.5588   -2.2029 H   0  0  0  0  0  0  0  0  0  0  0  0
    1.9611   -0.2509   -3.1208 H   0  0  0  0  0  0  0  0  0  0  0  0
    3.5683   -0.6803    2.5476 H   0  0  0  0  0  0  0  0  0  0  0  0
    5.0183   -1.2374    1.6697 H   0  0  0  0  0  0  0  0  0  0  0  0
    5.4918    1.1293    0.9984 H   0  0  0  0  0  0  0  0  0  0  0  0
    4.0601    1.6665    1.8907 H   0  0  0  0  0  0  0  0  0  0  0  0
    5.4317    0.9676    2.7613 H   0  0  0  0  0  0  0  0  0  0  0  0
   -0.4596   -0.7139    1.9388 H   0  0  0  0  0  0  0  0  0  0  0  0
   -0.8583   -2.4406    2.2565 H   0  0  0  0  0  0  0  0  0  0  0  0
   -2.1096    2.2468    2.5202 H   0  0  0  0  0  0  0  0  0  0  0  0
   -1.2204    2.6409    1.0261 H   0  0  0  0  0  0  0  0  0  0  0  0
   -4.2681    2.4294    1.2167 H   0  0  0  0  0  0  0  0  0  0  0  0
   -3.3579    3.9540    1.2176 H   0  0  0  0  0  0  0  0  0  0  0  0
   -3.3358    2.9087   -0.2109 H   0  0  0  0  0  0  0  0  0  0  0  0
   -4.9901    0.1289   -2.1911 H   0  0  0  0  0  0  0  0  0  0  0  0
   -3.4138    0.7407   -2.7805 H   0  0  0  0  0  0  0  0  0  0  0  0
   -3.8989   -1.5378   -3.7007 H   0  0  0  0  0  0  0  0  0  0  0  0
   -2.4578   -1.5296   -2.6703 H   0  0  0  0  0  0  0  0  0  0  0  0
   -3.9801   -2.1759   -2.0462 H   0  0  0  0  0  0  0  0  0  0  0  0
  1  2  1  0  0  0  0
  2  3  1  0  0  0  0
  3  4  2  0  0  0  0
  4  5  2  0  0  0  0
  4  6  2  0  0  0  0
  6  7  1  0  0  0  0
  7  8  1  0  0  0  0
  4  9  1  0  0  0  0
  9 10  1  0  0  0  0
 10 11  1  0  0  0  0
 11 12  1  0  0  0  0
 12 13  2  0  0  0  0
 12 14  2  0  0  0  0
 14 15  1  0  0  0  0
 15 16  1  0  0  0  0
 12 17  2  0  0  0  0
 17 18  1  0  0  0  0
 18 19  1  0  0  0  0
  1 20  1  0  0  0  0
  1 21  1  0  0  0  0
  1 22  1  0  0  0  0
  2 23  1  0  0  0  0
  2 24  1  0  0  0  0
  7 25  1  0  0  0  0
  7 26  1  0  0  0  0
  8 27  1  0  0  0  0
  8 28  1  0  0  0  0
  8 29  1  0  0  0  0
 10 30  1  0  0  0  0
 10 31  1  0  0  0  0
 15 32  1  0  0  0  0
 15 33  1  0  0  0  0
 16 34  1  0  0  0  0
 16 35  1  0  0  0  0
 16 36  1  0  0  0  0
 18 37  1  0  0  0  0
 18 38  1  0  0  0  0
 19 39  1  0  0  0  0
 19 40  1  0  0  0  0
 19 41  1  0  0  0  0
M  END
