 xtb: 6.7.1 (edcfbbe)
          04032519393D

  8  7  0     0  0            999 V2000
    1.4207    0.5151    0.0000 C   0  0  0  0  0  0  0  0  0  0  0  0
    0.5722   -0.6444   -0.0000 O   0  0  0  0  0  0  0  0  0  0  0  0
   -0.7234   -0.4808    0.0000 C   0  0  0  0  0  0  0  0  0  0  0  0
   -1.3274    0.5626   -0.0000 O   0  0  0  0  0  0  0  0  0  0  0  0
    0.8120    1.4193   -0.0035 H   0  0  0  0  0  0  0  0  0  0  0  0
    2.0426    0.4658   -0.8913 H   0  0  0  0  0  0  0  0  0  0  0  0
    2.0378    0.4697    0.8948 H   0  0  0  0  0  0  0  0  0  0  0  0
   -1.2147   -1.4652    0.0001 H   0  0  0  0  0  0  0  0  0  0  0  0
  1  2  1  0  0  0  0
  2  3  4  0  0  0  0
  3  4  2  0  0  0  0
  1  5  1  0  0  0  0
  1  6  1  0  0  0  0
  1  7  1  0  0  0  0
  3  8  1  0  0  0  0
M  END
