 xtb: 6.7.1 (edcfbbe)
          04092505213D

 41 40  0     0  0            999 V2000
    2.7664   -0.2823   -2.9573 C   0  0  0  0  0  0  0  0  0  0  0  0
    3.4283   -0.2320   -1.5961 C   0  0  0  0  0  0  0  0  0  0  0  0
    2.5771    0.5143   -0.6854 O   0  0  0  0  0  0  0  0  0  0  0  0
    2.3015    0.0366    0.7925 P   0  0  0  0  0  0  0  0  0  0  0  0
    1.2466    1.3279    1.8102 S   0  0  0  0  0  0  0  0  0  0  0  0
    3.7779   -0.2234    1.3253 O   0  0  0  0  0  0  0  0  0  0  0  0
    4.1009   -0.3185    2.7252 C   0  0  0  0  0  0  0  0  0  0  0  0
    3.4486   -1.5123    3.3911 C   0  0  0  0  0  0  0  0  0  0  0  0
    1.4861   -1.9265    0.6221 S   0  0  0  0  0  0  0  0  0  0  0  0
   -0.2320   -1.4379    0.4122 C   0  0  0  0  0  0  0  0  0  0  0  0
   -0.4989   -0.7064   -1.2527 S   0  0  0  0  0  0  0  0  0  0  0  0
   -2.2011    0.4542   -0.8478 P   0  0  0  0  0  0  0  0  0  0  0  0
   -2.9475    1.3520   -2.4209 S   0  0  0  0  0  0  0  0  0  0  0  0
   -1.6180    1.3379    0.3299 O   0  0  0  0  0  0  0  0  0  0  0  0
   -2.4051    1.9846    1.3515 C   0  0  0  0  0  0  0  0  0  0  0  0
   -3.3265    3.0411    0.7808 C   0  0  0  0  0  0  0  0  0  0  0  0
   -3.2282   -0.4846   -0.0605 O   0  0  0  0  0  0  0  0  0  0  0  0
   -4.2562   -1.2134   -0.7522 C   0  0  0  0  0  0  0  0  0  0  0  0
   -3.6917   -2.3914   -1.5201 C   0  0  0  0  0  0  0  0  0  0  0  0
    1.8282   -0.8299   -2.9041 H   0  0  0  0  0  0  0  0  0  0  0  0
    2.5581    0.7247   -3.3081 H   0  0  0  0  0  0  0  0  0  0  0  0
    3.4321   -0.7771   -3.6571 H   0  0  0  0  0  0  0  0  0  0  0  0
    4.3813    0.2985   -1.6316 H   0  0  0  0  0  0  0  0  0  0  0  0
    3.5855   -1.2362   -1.1930 H   0  0  0  0  0  0  0  0  0  0  0  0
    5.1890   -0.3966    2.7321 H   0  0  0  0  0  0  0  0  0  0  0  0
    3.7912    0.6110    3.2125 H   0  0  0  0  0  0  0  0  0  0  0  0
    3.8326   -1.6100    4.4015 H   0  0  0  0  0  0  0  0  0  0  0  0
    2.3702   -1.3702    3.4365 H   0  0  0  0  0  0  0  0  0  0  0  0
    3.6608   -2.4210    2.8336 H   0  0  0  0  0  0  0  0  0  0  0  0
   -0.4864   -0.6901    1.1639 H   0  0  0  0  0  0  0  0  0  0  0  0
   -0.8299   -2.3394    0.5105 H   0  0  0  0  0  0  0  0  0  0  0  0
   -2.9708    1.2185    1.8867 H   0  0  0  0  0  0  0  0  0  0  0  0
   -1.6484    2.4161    2.0110 H   0  0  0  0  0  0  0  0  0  0  0  0
   -3.8440    3.5430    1.5922 H   0  0  0  0  0  0  0  0  0  0  0  0
   -2.7560    3.7709    0.2110 H   0  0  0  0  0  0  0  0  0  0  0  0
   -4.0588    2.5820    0.1177 H   0  0  0  0  0  0  0  0  0  0  0  0
   -4.9354   -1.5321    0.0396 H   0  0  0  0  0  0  0  0  0  0  0  0
   -4.7690   -0.5256   -1.4322 H   0  0  0  0  0  0  0  0  0  0  0  0
   -3.1463   -3.0570   -0.8564 H   0  0  0  0  0  0  0  0  0  0  0  0
   -4.5057   -2.9385   -1.9846 H   0  0  0  0  0  0  0  0  0  0  0  0
   -3.0177   -2.0356   -2.2989 H   0  0  0  0  0  0  0  0  0  0  0  0
  1  2  1  0  0  0  0
  2  3  1  0  0  0  0
  3  4  2  0  0  0  0
  4  5  2  0  0  0  0
  4  6  2  0  0  0  0
  6  7  1  0  0  0  0
  7  8  1  0  0  0  0
  4  9  1  0  0  0  0
  9 10  1  0  0  0  0
 10 11  1  0  0  0  0
 11 12  1  0  0  0  0
 12 13  2  0  0  0  0
 12 14  2  0  0  0  0
 14 15  1  0  0  0  0
 15 16  1  0  0  0  0
 12 17  2  0  0  0  0
 17 18  1  0  0  0  0
 18 19  1  0  0  0  0
  1 20  1  0  0  0  0
  1 21  1  0  0  0  0
  1 22  1  0  0  0  0
  2 23  1  0  0  0  0
  2 24  1  0  0  0  0
  7 25  1  0  0  0  0
  7 26  1  0  0  0  0
  8 27  1  0  0  0  0
  8 28  1  0  0  0  0
  8 29  1  0  0  0  0
 10 30  1  0  0  0  0
 10 31  1  0  0  0  0
 15 32  1  0  0  0  0
 15 33  1  0  0  0  0
 16 34  1  0  0  0  0
 16 35  1  0  0  0  0
 16 36  1  0  0  0  0
 18 37  1  0  0  0  0
 18 38  1  0  0  0  0
 19 39  1  0  0  0  0
 19 40  1  0  0  0  0
 19 41  1  0  0  0  0
M  END
