 xtb: 6.7.1 (edcfbbe)
          04032519423D

 20 20  0     0  0            999 V2000
    0.5877    1.4498    0.0595 C   0  0  0  0  0  0  0  0  0  0  0  0
    1.5336    0.2297    0.0424 C   0  0  0  0  0  0  0  0  0  0  0  0
    2.3429    0.3952   -0.6755 H   0  0  0  0  0  0  0  0  0  0  0  0
    0.7529   -1.0419   -0.3737 C   0  0  0  0  0  0  0  0  0  0  0  0
    1.2332   -1.9002    0.1196 H   0  0  0  0  0  0  0  0  0  0  0  0
   -0.6857   -0.9350    0.1428 C   0  0  0  0  0  0  0  0  0  0  0  0
   -1.2398   -1.8431   -0.1346 H   0  0  0  0  0  0  0  0  0  0  0  0
   -1.3687    0.2663   -0.5494 C   0  0  0  0  0  0  0  0  0  0  0  0
   -1.7761   -0.0598   -1.5167 H   0  0  0  0  0  0  0  0  0  0  0  0
   -0.4741    1.2991   -0.8683 O   0  0  0  0  0  0  0  0  0  0  0  0
   -2.3832    0.7089    0.3037 O   0  0  0  0  0  0  0  0  0  0  0  0
   -0.6406   -0.7964    1.5386 O   0  0  0  0  0  0  0  0  0  0  0  0
    0.6842   -1.2345   -1.7624 O   0  0  0  0  0  0  0  0  0  0  0  0
    2.1622    0.0498    1.2852 O   0  0  0  0  0  0  0  0  0  0  0  0
    1.1084    2.3584   -0.2402 H   0  0  0  0  0  0  0  0  0  0  0  0
    0.1901    1.5787    1.0734 H   0  0  0  0  0  0  0  0  0  0  0  0
   -2.8325    1.4720   -0.0881 H   0  0  0  0  0  0  0  0  0  0  0  0
   -1.5149   -0.4965    1.8368 H   0  0  0  0  0  0  0  0  0  0  0  0
    1.5751   -1.3725   -2.1162 H   0  0  0  0  0  0  0  0  0  0  0  0
    1.4837   -0.1885    1.9383 H   0  0  0  0  0  0  0  0  0  0  0  0
  1  2  1  0  0  0  0
  2  3  1  0  0  0  0
  2  4  1  0  0  0  0
  4  5  1  0  0  0  0
  4  6  1  0  0  0  0
  6  7  1  0  0  0  0
  6  8  1  0  0  0  0
  8  9  1  0  0  0  0
  1 10  1  0  0  0  0
  8 10  1  0  0  0  0
  8 11  1  0  0  0  0
  6 12  1  0  0  0  0
  4 13  1  0  0  0  0
  2 14  1  0  0  0  0
  1 15  1  0  0  0  0
  1 16  1  0  0  0  0
 11 17  1  0  0  0  0
 12 18  1  0  0  0  0
 13 19  1  0  0  0  0
 14 20  1  0  0  0  0
M  END
