 xtb: 6.7.1 (edcfbbe)
          04092507313D

 38 37  0     0  0            999 V2000
    3.0186   -3.8699   -0.6026 C   0  0  0  0  0  0  0  0  0  0  0  0
    3.8772   -2.6275   -0.7768 C   0  0  0  0  0  0  0  0  0  0  0  0
    3.1805   -1.6370   -1.5594 O   0  0  0  0  0  0  0  0  0  0  0  0
    2.3773   -0.8012   -0.9465 C   0  0  0  0  0  0  0  0  0  0  0  0
    2.1993   -0.7596    0.2550 O   0  0  0  0  0  0  0  0  0  0  0  0
    1.6934    0.1484   -1.9083 C   0  0  0  0  0  0  0  0  0  0  0  0
    0.4117    0.6546   -1.2616 C   0  0  0  0  0  0  0  0  0  0  0  0
   -0.0361    1.4651   -1.8435 H   0  0  0  0  0  0  0  0  0  0  0  0
    0.6661    1.1658    0.1434 C   0  0  0  0  0  0  0  0  0  0  0  0
   -0.0490    0.8581    1.0815 O   0  0  0  0  0  0  0  0  0  0  0  0
    1.6245    2.0473    0.1825 O   0  0  0  0  0  0  0  0  0  0  0  0
    1.9366    2.6690    1.4486 C   0  0  0  0  0  0  0  0  0  0  0  0
    2.9982    1.8728    2.1885 C   0  0  0  0  0  0  0  0  0  0  0  0
   -0.8083   -0.6946   -1.1341 S   0  0  0  0  0  0  0  0  0  0  0  0
   -2.2271    0.2380    0.1627 P   0  0  0  0  0  0  0  0  0  0  0  0
   -2.4437    2.1890    0.1669 S   0  0  0  0  0  0  0  0  0  0  0  0
   -3.5742   -0.2934   -0.5121 O   0  0  0  0  0  0  0  0  0  0  0  0
   -3.8687   -1.6808   -0.7360 C   0  0  0  0  0  0  0  0  0  0  0  0
   -2.3470   -0.6103    1.5126 O   0  0  0  0  0  0  0  0  0  0  0  0
   -1.5861   -0.6094    2.7172 C   0  0  0  0  0  0  0  0  0  0  0  0
    2.1157   -3.6256   -0.0468 H   0  0  0  0  0  0  0  0  0  0  0  0
    2.7360   -4.2685   -1.5728 H   0  0  0  0  0  0  0  0  0  0  0  0
    3.5782   -4.6207   -0.0547 H   0  0  0  0  0  0  0  0  0  0  0  0
    4.7794   -2.8429   -1.3491 H   0  0  0  0  0  0  0  0  0  0  0  0
    4.1334   -2.1924    0.1932 H   0  0  0  0  0  0  0  0  0  0  0  0
    1.4882   -0.3616   -2.8481 H   0  0  0  0  0  0  0  0  0  0  0  0
    2.3622    0.9913   -2.0955 H   0  0  0  0  0  0  0  0  0  0  0  0
    2.2932    3.6633    1.1786 H   0  0  0  0  0  0  0  0  0  0  0  0
    1.0156    2.7426    2.0332 H   0  0  0  0  0  0  0  0  0  0  0  0
    2.6569    0.8507    2.3370 H   0  0  0  0  0  0  0  0  0  0  0  0
    3.9204    1.8523    1.6150 H   0  0  0  0  0  0  0  0  0  0  0  0
    3.1839    2.3321    3.1536 H   0  0  0  0  0  0  0  0  0  0  0  0
   -4.0352   -2.1834    0.2150 H   0  0  0  0  0  0  0  0  0  0  0  0
   -3.0469   -2.1555   -1.2738 H   0  0  0  0  0  0  0  0  0  0  0  0
   -4.7733   -1.6858   -1.3389 H   0  0  0  0  0  0  0  0  0  0  0  0
   -1.4889    0.4023    3.1072 H   0  0  0  0  0  0  0  0  0  0  0  0
   -0.5965   -1.0278    2.5398 H   0  0  0  0  0  0  0  0  0  0  0  0
   -2.1534   -1.2344    3.4043 H   0  0  0  0  0  0  0  0  0  0  0  0
  1  2  1  0  0  0  0
  2  3  1  0  0  0  0
  3  4  4  0  0  0  0
  4  5  2  0  0  0  0
  4  6  1  0  0  0  0
  6  7  1  0  0  0  0
  7  8  1  0  0  0  0
  7  9  1  0  0  0  0
  9 10  2  0  0  0  0
  9 11  4  0  0  0  0
 11 12  1  0  0  0  0
 12 13  1  0  0  0  0
  7 14  1  0  0  0  0
 14 15  1  0  0  0  0
 15 16  2  0  0  0  0
 15 17  1  0  0  0  0
 17 18  1  0  0  0  0
 15 19  2  0  0  0  0
 19 20  1  0  0  0  0
  1 21  1  0  0  0  0
  1 22  1  0  0  0  0
  1 23  1  0  0  0  0
  2 24  1  0  0  0  0
  2 25  1  0  0  0  0
  6 26  1  0  0  0  0
  6 27  1  0  0  0  0
 12 28  1  0  0  0  0
 12 29  1  0  0  0  0
 13 30  1  0  0  0  0
 13 31  1  0  0  0  0
 13 32  1  0  0  0  0
 18 33  1  0  0  0  0
 18 34  1  0  0  0  0
 18 35  1  0  0  0  0
 20 36  1  0  0  0  0
 20 37  1  0  0  0  0
 20 38  1  0  0  0  0
M  END
