 xtb: 6.7.1 (edcfbbe)
          04092505213D

 41 40  0     0  0            999 V2000
    3.2456   -0.9556   -3.1649 C   0  0  0  0  0  0  0  0  0  0  0  0
    4.1043   -0.7363   -1.9377 C   0  0  0  0  0  0  0  0  0  0  0  0
    3.5426    0.2282   -1.0259 O   0  0  0  0  0  0  0  0  0  0  0  0
    2.0618    0.1970   -0.4515 P   0  0  0  0  0  0  0  0  0  0  0  0
    0.6585    0.8966   -1.6234 S   0  0  0  0  0  0  0  0  0  0  0  0
    2.1871    1.1322    0.8085 O   0  0  0  0  0  0  0  0  0  0  0  0
    3.2105    1.0493    1.8311 C   0  0  0  0  0  0  0  0  0  0  0  0
    2.7145    0.2763    3.0378 C   0  0  0  0  0  0  0  0  0  0  0  0
    1.9128   -1.8251    0.2109 S   0  0  0  0  0  0  0  0  0  0  0  0
    0.2798   -1.8047    0.9886 C   0  0  0  0  0  0  0  0  0  0  0  0
   -1.0970   -1.6877   -0.2001 S   0  0  0  0  0  0  0  0  0  0  0  0
   -1.9595    0.1080    0.4970 P   0  0  0  0  0  0  0  0  0  0  0  0
   -0.9619    1.2260    1.7493 S   0  0  0  0  0  0  0  0  0  0  0  0
   -3.2633   -0.5651    1.1517 O   0  0  0  0  0  0  0  0  0  0  0  0
   -4.0544    0.1037    2.1491 C   0  0  0  0  0  0  0  0  0  0  0  0
   -4.8676    1.2376    1.5570 C   0  0  0  0  0  0  0  0  0  0  0  0
   -2.4546    0.9102   -0.7724 O   0  0  0  0  0  0  0  0  0  0  0  0
   -3.1435    0.2868   -1.8843 C   0  0  0  0  0  0  0  0  0  0  0  0
   -2.7794    1.0413   -3.1451 C   0  0  0  0  0  0  0  0  0  0  0  0
    3.7549   -1.6306   -3.8451 H   0  0  0  0  0  0  0  0  0  0  0  0
    2.2887   -1.3920   -2.8809 H   0  0  0  0  0  0  0  0  0  0  0  0
    3.0541   -0.0106   -3.6680 H   0  0  0  0  0  0  0  0  0  0  0  0
    5.0724   -0.3052   -2.1991 H   0  0  0  0  0  0  0  0  0  0  0  0
    4.2473   -1.6735   -1.3929 H   0  0  0  0  0  0  0  0  0  0  0  0
    4.1075    0.5994    1.4018 H   0  0  0  0  0  0  0  0  0  0  0  0
    3.4054    2.0920    2.0870 H   0  0  0  0  0  0  0  0  0  0  0  0
    3.4179    0.4079    3.8539 H   0  0  0  0  0  0  0  0  0  0  0  0
    1.7418    0.6582    3.3417 H   0  0  0  0  0  0  0  0  0  0  0  0
    2.6292   -0.7841    2.8135 H   0  0  0  0  0  0  0  0  0  0  0  0
    0.2118   -0.9627    1.6827 H   0  0  0  0  0  0  0  0  0  0  0  0
    0.1934   -2.7568    1.5054 H   0  0  0  0  0  0  0  0  0  0  0  0
   -4.6909   -0.6843    2.5540 H   0  0  0  0  0  0  0  0  0  0  0  0
   -3.3832    0.4788    2.9285 H   0  0  0  0  0  0  0  0  0  0  0  0
   -5.4693    1.6948    2.3362 H   0  0  0  0  0  0  0  0  0  0  0  0
   -4.1998    1.9906    1.1381 H   0  0  0  0  0  0  0  0  0  0  0  0
   -5.5200    0.8667    0.7704 H   0  0  0  0  0  0  0  0  0  0  0  0
   -2.8374   -0.7617   -1.9491 H   0  0  0  0  0  0  0  0  0  0  0  0
   -4.2146    0.3394   -1.6752 H   0  0  0  0  0  0  0  0  0  0  0  0
   -3.2719    0.5793   -3.9943 H   0  0  0  0  0  0  0  0  0  0  0  0
   -3.0896    2.0788   -3.0621 H   0  0  0  0  0  0  0  0  0  0  0  0
   -1.7016    1.0138   -3.2900 H   0  0  0  0  0  0  0  0  0  0  0  0
  1  2  1  0  0  0  0
  2  3  1  0  0  0  0
  3  4  2  0  0  0  0
  4  5  2  0  0  0  0
  4  6  2  0  0  0  0
  6  7  1  0  0  0  0
  7  8  1  0  0  0  0
  4  9  1  0  0  0  0
  9 10  1  0  0  0  0
 10 11  1  0  0  0  0
 11 12  1  0  0  0  0
 12 13  2  0  0  0  0
 12 14  1  0  0  0  0
 14 15  1  0  0  0  0
 15 16  1  0  0  0  0
 12 17  2  0  0  0  0
 17 18  1  0  0  0  0
 18 19  1  0  0  0  0
  1 20  1  0  0  0  0
  1 21  1  0  0  0  0
  1 22  1  0  0  0  0
  2 23  1  0  0  0  0
  2 24  1  0  0  0  0
  7 25  1  0  0  0  0
  7 26  1  0  0  0  0
  8 27  1  0  0  0  0
  8 28  1  0  0  0  0
  8 29  1  0  0  0  0
 10 30  1  0  0  0  0
 10 31  1  0  0  0  0
 15 32  1  0  0  0  0
 15 33  1  0  0  0  0
 16 34  1  0  0  0  0
 16 35  1  0  0  0  0
 16 36  1  0  0  0  0
 18 37  1  0  0  0  0
 18 38  1  0  0  0  0
 19 39  1  0  0  0  0
 19 40  1  0  0  0  0
 19 41  1  0  0  0  0
M  END
