 xtb: 6.7.1 (edcfbbe)
          04092507313D

 38 37  0     0  0            999 V2000
    4.2891   -2.0790    0.9222 C   0  0  0  0  0  0  0  0  0  0  0  0
    2.8005   -2.0306    0.6404 C   0  0  0  0  0  0  0  0  0  0  0  0
    2.5715   -1.0611   -0.4000 O   0  0  0  0  0  0  0  0  0  0  0  0
    1.4149   -1.0654   -1.0167 C   0  0  0  0  0  0  0  0  0  0  0  0
    0.5076   -1.8400   -0.7764 O   0  0  0  0  0  0  0  0  0  0  0  0
    1.3260    0.0094   -2.0791 C   0  0  0  0  0  0  0  0  0  0  0  0
    0.1777    0.9705   -1.7765 C   0  0  0  0  0  0  0  0  0  0  0  0
    0.0676    1.6825   -2.6006 H   0  0  0  0  0  0  0  0  0  0  0  0
    0.3508    1.7680   -0.4956 C   0  0  0  0  0  0  0  0  0  0  0  0
   -0.5958    2.2308    0.1121 O   0  0  0  0  0  0  0  0  0  0  0  0
    1.6018    1.9133   -0.1608 O   0  0  0  0  0  0  0  0  0  0  0  0
    1.8999    2.6144    1.0649 C   0  0  0  0  0  0  0  0  0  0  0  0
    3.4042    2.6069    1.2411 C   0  0  0  0  0  0  0  0  0  0  0  0
   -1.4492    0.1410   -1.6961 S   0  0  0  0  0  0  0  0  0  0  0  0
   -1.7166   -0.2649    0.3778 P   0  0  0  0  0  0  0  0  0  0  0  0
   -0.3076   -0.3549    1.7357 S   0  0  0  0  0  0  0  0  0  0  0  0
   -2.8290    0.7438    0.8804 O   0  0  0  0  0  0  0  0  0  0  0  0
   -4.0477    1.0088    0.1649 C   0  0  0  0  0  0  0  0  0  0  0  0
   -2.6162   -1.5891    0.2951 O   0  0  0  0  0  0  0  0  0  0  0  0
   -2.1273   -2.9013    0.0144 C   0  0  0  0  0  0  0  0  0  0  0  0
    4.4795   -2.8083    1.7023 H   0  0  0  0  0  0  0  0  0  0  0  0
    4.8303   -2.3626    0.0245 H   0  0  0  0  0  0  0  0  0  0  0  0
    4.6387   -1.1056    1.2521 H   0  0  0  0  0  0  0  0  0  0  0  0
    2.2255   -1.7220    1.5198 H   0  0  0  0  0  0  0  0  0  0  0  0
    2.4165   -2.9974    0.2998 H   0  0  0  0  0  0  0  0  0  0  0  0
    1.1269   -0.4735   -3.0367 H   0  0  0  0  0  0  0  0  0  0  0  0
    2.2667    0.5569   -2.1130 H   0  0  0  0  0  0  0  0  0  0  0  0
    1.4948    3.6277    0.9888 H   0  0  0  0  0  0  0  0  0  0  0  0
    1.3868    2.0949    1.8812 H   0  0  0  0  0  0  0  0  0  0  0  0
    3.8809    3.1278    0.4166 H   0  0  0  0  0  0  0  0  0  0  0  0
    3.6561    3.0997    2.1738 H   0  0  0  0  0  0  0  0  0  0  0  0
    3.7631    1.5825    1.2683 H   0  0  0  0  0  0  0  0  0  0  0  0
   -4.5542    1.7732    0.7483 H   0  0  0  0  0  0  0  0  0  0  0  0
   -4.6470    0.1017    0.1053 H   0  0  0  0  0  0  0  0  0  0  0  0
   -3.8202    1.3771   -0.8356 H   0  0  0  0  0  0  0  0  0  0  0  0
   -1.8294   -2.9740   -1.0304 H   0  0  0  0  0  0  0  0  0  0  0  0
   -2.9564   -3.5696    0.2329 H   0  0  0  0  0  0  0  0  0  0  0  0
   -1.2701   -3.1268    0.6483 H   0  0  0  0  0  0  0  0  0  0  0  0
  1  2  1  0  0  0  0
  2  3  1  0  0  0  0
  3  4  4  0  0  0  0
  4  5  2  0  0  0  0
  4  6  1  0  0  0  0
  6  7  1  0  0  0  0
  7  8  1  0  0  0  0
  7  9  1  0  0  0  0
  9 10  2  0  0  0  0
  9 11  4  0  0  0  0
 11 12  1  0  0  0  0
 12 13  1  0  0  0  0
  7 14  1  0  0  0  0
 14 15  1  0  0  0  0
 15 16  2  0  0  0  0
 15 17  2  0  0  0  0
 17 18  1  0  0  0  0
 15 19  1  0  0  0  0
 19 20  1  0  0  0  0
  1 21  1  0  0  0  0
  1 22  1  0  0  0  0
  1 23  1  0  0  0  0
  2 24  1  0  0  0  0
  2 25  1  0  0  0  0
  6 26  1  0  0  0  0
  6 27  1  0  0  0  0
 12 28  1  0  0  0  0
 12 29  1  0  0  0  0
 13 30  1  0  0  0  0
 13 31  1  0  0  0  0
 13 32  1  0  0  0  0
 18 33  1  0  0  0  0
 18 34  1  0  0  0  0
 18 35  1  0  0  0  0
 20 36  1  0  0  0  0
 20 37  1  0  0  0  0
 20 38  1  0  0  0  0
M  END
