 xtb: 6.7.1 (edcfbbe)
          04092505203D

 41 40  0     0  0            999 V2000
    4.6704   -1.4107   -0.6062 C   0  0  0  0  0  0  0  0  0  0  0  0
    4.6284    0.0201   -0.1092 C   0  0  0  0  0  0  0  0  0  0  0  0
    3.4082    0.3198    0.5892 O   0  0  0  0  0  0  0  0  0  0  0  0
    1.9966    0.4011   -0.1403 P   0  0  0  0  0  0  0  0  0  0  0  0
    2.0584    1.1847   -1.9407 S   0  0  0  0  0  0  0  0  0  0  0  0
    1.1298    1.1403    0.9598 O   0  0  0  0  0  0  0  0  0  0  0  0
    1.0385    2.5743    1.0424 C   0  0  0  0  0  0  0  0  0  0  0  0
    2.3544    3.2095    1.4371 C   0  0  0  0  0  0  0  0  0  0  0  0
    1.2658   -1.5606    0.0482 S   0  0  0  0  0  0  0  0  0  0  0  0
    0.1217   -1.6427   -1.3709 C   0  0  0  0  0  0  0  0  0  0  0  0
   -1.5779   -1.9936   -0.8719 S   0  0  0  0  0  0  0  0  0  0  0  0
   -2.0264   -0.1066   -0.0024 P   0  0  0  0  0  0  0  0  0  0  0  0
   -1.4714    1.4459   -1.0567 S   0  0  0  0  0  0  0  0  0  0  0  0
   -1.4460   -0.1024    1.4583 O   0  0  0  0  0  0  0  0  0  0  0  0
   -1.7957   -1.1171    2.4410 C   0  0  0  0  0  0  0  0  0  0  0  0
   -0.6074   -1.3187    3.3573 C   0  0  0  0  0  0  0  0  0  0  0  0
   -3.5873   -0.2252    0.2656 O   0  0  0  0  0  0  0  0  0  0  0  0
   -4.5404   -0.2119   -0.8181 C   0  0  0  0  0  0  0  0  0  0  0  0
   -5.9150    0.0103   -0.2213 C   0  0  0  0  0  0  0  0  0  0  0  0
    3.9345   -1.5511   -1.3967 H   0  0  0  0  0  0  0  0  0  0  0  0
    5.6577   -1.6222   -1.0041 H   0  0  0  0  0  0  0  0  0  0  0  0
    4.4510   -2.0997    0.2054 H   0  0  0  0  0  0  0  0  0  0  0  0
    4.7270    0.7187   -0.9464 H   0  0  0  0  0  0  0  0  0  0  0  0
    5.4062    0.2127    0.6309 H   0  0  0  0  0  0  0  0  0  0  0  0
    0.6924    2.9554    0.0753 H   0  0  0  0  0  0  0  0  0  0  0  0
    0.2615    2.7401    1.7907 H   0  0  0  0  0  0  0  0  0  0  0  0
    3.0839    3.0786    0.6388 H   0  0  0  0  0  0  0  0  0  0  0  0
    2.2016    4.2712    1.6040 H   0  0  0  0  0  0  0  0  0  0  0  0
    2.7358    2.7481    2.3443 H   0  0  0  0  0  0  0  0  0  0  0  0
    0.4269   -2.4725   -2.0030 H   0  0  0  0  0  0  0  0  0  0  0  0
    0.1634   -0.6944   -1.9141 H   0  0  0  0  0  0  0  0  0  0  0  0
   -2.6676   -0.7471    2.9827 H   0  0  0  0  0  0  0  0  0  0  0  0
   -2.0578   -2.0404    1.9161 H   0  0  0  0  0  0  0  0  0  0  0  0
    0.2440   -1.6952    2.7957 H   0  0  0  0  0  0  0  0  0  0  0  0
   -0.3291   -0.3759    3.8197 H   0  0  0  0  0  0  0  0  0  0  0  0
   -0.8729   -2.0348    4.1283 H   0  0  0  0  0  0  0  0  0  0  0  0
   -4.2664    0.5893   -1.5121 H   0  0  0  0  0  0  0  0  0  0  0  0
   -4.4784   -1.1720   -1.3369 H   0  0  0  0  0  0  0  0  0  0  0  0
   -6.1472   -0.7850    0.4807 H   0  0  0  0  0  0  0  0  0  0  0  0
   -5.9459    0.9626    0.3005 H   0  0  0  0  0  0  0  0  0  0  0  0
   -6.6515    0.0143   -1.0179 H   0  0  0  0  0  0  0  0  0  0  0  0
  1  2  1  0  0  0  0
  2  3  1  0  0  0  0
  3  4  2  0  0  0  0
  4  5  2  0  0  0  0
  4  6  2  0  0  0  0
  6  7  1  0  0  0  0
  7  8  1  0  0  0  0
  4  9  1  0  0  0  0
  9 10  1  0  0  0  0
 10 11  1  0  0  0  0
 11 12  1  0  0  0  0
 12 13  2  0  0  0  0
 12 14  2  0  0  0  0
 14 15  1  0  0  0  0
 15 16  1  0  0  0  0
 12 17  2  0  0  0  0
 17 18  1  0  0  0  0
 18 19  1  0  0  0  0
  1 20  1  0  0  0  0
  1 21  1  0  0  0  0
  1 22  1  0  0  0  0
  2 23  1  0  0  0  0
  2 24  1  0  0  0  0
  7 25  1  0  0  0  0
  7 26  1  0  0  0  0
  8 27  1  0  0  0  0
  8 28  1  0  0  0  0
  8 29  1  0  0  0  0
 10 30  1  0  0  0  0
 10 31  1  0  0  0  0
 15 32  1  0  0  0  0
 15 33  1  0  0  0  0
 16 34  1  0  0  0  0
 16 35  1  0  0  0  0
 16 36  1  0  0  0  0
 18 37  1  0  0  0  0
 18 38  1  0  0  0  0
 19 39  1  0  0  0  0
 19 40  1  0  0  0  0
 19 41  1  0  0  0  0
M  END
