 xtb: 6.7.1 (edcfbbe)
          04092505213D

 41 40  0     0  0            999 V2000
    2.8344   -2.2466   -2.5226 C   0  0  0  0  0  0  0  0  0  0  0  0
    3.5285   -1.1005   -1.8131 C   0  0  0  0  0  0  0  0  0  0  0  0
    3.0037   -0.9725   -0.4737 O   0  0  0  0  0  0  0  0  0  0  0  0
    2.2223    0.2916    0.0659 P   0  0  0  0  0  0  0  0  0  0  0  0
    1.5756    1.5363   -1.3164 S   0  0  0  0  0  0  0  0  0  0  0  0
    3.3060    0.9507    1.0267 O   0  0  0  0  0  0  0  0  0  0  0  0
    3.1758    2.2825    1.5479 C   0  0  0  0  0  0  0  0  0  0  0  0
    2.0533    2.3837    2.5612 C   0  0  0  0  0  0  0  0  0  0  0  0
    0.9561   -0.6868    1.4411 S   0  0  0  0  0  0  0  0  0  0  0  0
    0.2043   -1.9181    0.3350 C   0  0  0  0  0  0  0  0  0  0  0  0
   -0.6079   -1.1951   -1.1201 S   0  0  0  0  0  0  0  0  0  0  0  0
   -1.9676    0.1207   -0.1637 P   0  0  0  0  0  0  0  0  0  0  0  0
   -1.4338    1.8054    0.6693 S   0  0  0  0  0  0  0  0  0  0  0  0
   -2.7114   -0.9060    0.8080 O   0  0  0  0  0  0  0  0  0  0  0  0
   -3.0406   -0.6432    2.1879 C   0  0  0  0  0  0  0  0  0  0  0  0
   -2.2273   -1.5304    3.1090 C   0  0  0  0  0  0  0  0  0  0  0  0
   -2.9781    0.4201   -1.3438 O   0  0  0  0  0  0  0  0  0  0  0  0
   -3.6734   -0.6239   -2.0753 C   0  0  0  0  0  0  0  0  0  0  0  0
   -5.0475   -0.1039   -2.4444 C   0  0  0  0  0  0  0  0  0  0  0  0
    3.2646   -2.3621   -3.5120 H   0  0  0  0  0  0  0  0  0  0  0  0
    2.9674   -3.1694   -1.9650 H   0  0  0  0  0  0  0  0  0  0  0  0
    1.7704   -2.0373   -2.6210 H   0  0  0  0  0  0  0  0  0  0  0  0
    3.3748   -0.1573   -2.3473 H   0  0  0  0  0  0  0  0  0  0  0  0
    4.5972   -1.2867   -1.6962 H   0  0  0  0  0  0  0  0  0  0  0  0
    4.1480    2.4840    1.9997 H   0  0  0  0  0  0  0  0  0  0  0  0
    3.0029    2.9684    0.7117 H   0  0  0  0  0  0  0  0  0  0  0  0
    2.1717    1.6272    3.3331 H   0  0  0  0  0  0  0  0  0  0  0  0
    2.0634    3.3693    3.0153 H   0  0  0  0  0  0  0  0  0  0  0  0
    1.0892    2.2390    2.0712 H   0  0  0  0  0  0  0  0  0  0  0  0
   -0.5278   -2.4587    0.9305 H   0  0  0  0  0  0  0  0  0  0  0  0
    0.9736   -2.5852   -0.0473 H   0  0  0  0  0  0  0  0  0  0  0  0
   -2.8579    0.4154    2.3989 H   0  0  0  0  0  0  0  0  0  0  0  0
   -4.1079   -0.8552    2.2735 H   0  0  0  0  0  0  0  0  0  0  0  0
   -1.1699   -1.2803    3.0419 H   0  0  0  0  0  0  0  0  0  0  0  0
   -2.5602   -1.3703    4.1294 H   0  0  0  0  0  0  0  0  0  0  0  0
   -2.3704   -2.5756    2.8491 H   0  0  0  0  0  0  0  0  0  0  0  0
   -3.0781   -0.8471   -2.9635 H   0  0  0  0  0  0  0  0  0  0  0  0
   -3.7386   -1.5139   -1.4453 H   0  0  0  0  0  0  0  0  0  0  0  0
   -5.5675   -0.8572   -3.0275 H   0  0  0  0  0  0  0  0  0  0  0  0
   -5.6198    0.1179   -1.5479 H   0  0  0  0  0  0  0  0  0  0  0  0
   -4.9540    0.8056   -3.0312 H   0  0  0  0  0  0  0  0  0  0  0  0
  1  2  1  0  0  0  0
  2  3  1  0  0  0  0
  3  4  2  0  0  0  0
  4  5  2  0  0  0  0
  4  6  2  0  0  0  0
  6  7  1  0  0  0  0
  7  8  1  0  0  0  0
  4  9  1  0  0  0  0
  9 10  1  0  0  0  0
 10 11  1  0  0  0  0
 11 12  1  0  0  0  0
 12 13  2  0  0  0  0
 12 14  2  0  0  0  0
 14 15  1  0  0  0  0
 15 16  1  0  0  0  0
 12 17  2  0  0  0  0
 17 18  1  0  0  0  0
 18 19  1  0  0  0  0
  1 20  1  0  0  0  0
  1 21  1  0  0  0  0
  1 22  1  0  0  0  0
  2 23  1  0  0  0  0
  2 24  1  0  0  0  0
  7 25  1  0  0  0  0
  7 26  1  0  0  0  0
  8 27  1  0  0  0  0
  8 28  1  0  0  0  0
  8 29  1  0  0  0  0
 10 30  1  0  0  0  0
 10 31  1  0  0  0  0
 15 32  1  0  0  0  0
 15 33  1  0  0  0  0
 16 34  1  0  0  0  0
 16 35  1  0  0  0  0
 16 36  1  0  0  0  0
 18 37  1  0  0  0  0
 18 38  1  0  0  0  0
 19 39  1  0  0  0  0
 19 40  1  0  0  0  0
 19 41  1  0  0  0  0
M  END
