 xtb: 6.7.1 (edcfbbe)
          04092505213D

 41 40  0     0  0            999 V2000
    1.4617   -0.9960   -2.8435 C   0  0  0  0  0  0  0  0  0  0  0  0
    2.5233   -0.3312   -1.9905 C   0  0  0  0  0  0  0  0  0  0  0  0
    1.9059    0.3904   -0.8966 O   0  0  0  0  0  0  0  0  0  0  0  0
    1.9980   -0.1066    0.6104 P   0  0  0  0  0  0  0  0  0  0  0  0
    0.9969    1.0991    1.7766 S   0  0  0  0  0  0  0  0  0  0  0  0
    3.5547   -0.2893    0.9185 O   0  0  0  0  0  0  0  0  0  0  0  0
    4.4116    0.8647    1.0607 C   0  0  0  0  0  0  0  0  0  0  0  0
    4.6164    1.1981    2.5252 C   0  0  0  0  0  0  0  0  0  0  0  0
    1.5279   -2.1509    0.6866 S   0  0  0  0  0  0  0  0  0  0  0  0
   -0.2420   -1.9902    1.0619 C   0  0  0  0  0  0  0  0  0  0  0  0
   -1.3004   -1.8061   -0.4075 S   0  0  0  0  0  0  0  0  0  0  0  0
   -1.9706    0.2055   -0.3668 P   0  0  0  0  0  0  0  0  0  0  0  0
   -0.9725    1.6542   -1.2426 S   0  0  0  0  0  0  0  0  0  0  0  0
   -2.2550    0.3362    1.1855 O   0  0  0  0  0  0  0  0  0  0  0  0
   -2.4714    1.6105    1.8226 C   0  0  0  0  0  0  0  0  0  0  0  0
   -3.7490    2.2695    1.3502 C   0  0  0  0  0  0  0  0  0  0  0  0
   -3.4395    0.0462   -0.9609 O   0  0  0  0  0  0  0  0  0  0  0  0
   -3.7135    0.1695   -2.3640 C   0  0  0  0  0  0  0  0  0  0  0  0
   -3.1710   -1.0111   -3.1435 C   0  0  0  0  0  0  0  0  0  0  0  0
    0.7173   -0.2583   -3.1353 H   0  0  0  0  0  0  0  0  0  0  0  0
    1.9260   -1.4084   -3.7332 H   0  0  0  0  0  0  0  0  0  0  0  0
    0.9682   -1.7962   -2.2955 H   0  0  0  0  0  0  0  0  0  0  0  0
    3.0629    0.4296   -2.5572 H   0  0  0  0  0  0  0  0  0  0  0  0
    3.2271   -1.0644   -1.5844 H   0  0  0  0  0  0  0  0  0  0  0  0
    5.3507    0.5757    0.5845 H   0  0  0  0  0  0  0  0  0  0  0  0
    3.9721    1.7116    0.5221 H   0  0  0  0  0  0  0  0  0  0  0  0
    3.6713    1.4873    2.9805 H   0  0  0  0  0  0  0  0  0  0  0  0
    5.0072    0.3314    3.0506 H   0  0  0  0  0  0  0  0  0  0  0  0
    5.3184    2.0214    2.6111 H   0  0  0  0  0  0  0  0  0  0  0  0
   -0.3947   -1.1396    1.7274 H   0  0  0  0  0  0  0  0  0  0  0  0
   -0.5360   -2.9228    1.5355 H   0  0  0  0  0  0  0  0  0  0  0  0
   -2.5052    1.3654    2.8852 H   0  0  0  0  0  0  0  0  0  0  0  0
   -1.6026    2.2481    1.6275 H   0  0  0  0  0  0  0  0  0  0  0  0
   -4.5868    1.5866    1.4646 H   0  0  0  0  0  0  0  0  0  0  0  0
   -3.9261    3.1659    1.9361 H   0  0  0  0  0  0  0  0  0  0  0  0
   -3.6572    2.5449    0.3002 H   0  0  0  0  0  0  0  0  0  0  0  0
   -4.8012    0.2269   -2.4191 H   0  0  0  0  0  0  0  0  0  0  0  0
   -3.2704    1.1051   -2.7224 H   0  0  0  0  0  0  0  0  0  0  0  0
   -3.4567   -0.9199   -4.1864 H   0  0  0  0  0  0  0  0  0  0  0  0
   -2.0835   -1.0288   -3.0725 H   0  0  0  0  0  0  0  0  0  0  0  0
   -3.5591   -1.9420   -2.7390 H   0  0  0  0  0  0  0  0  0  0  0  0
  1  2  1  0  0  0  0
  2  3  1  0  0  0  0
  3  4  2  0  0  0  0
  4  5  2  0  0  0  0
  4  6  1  0  0  0  0
  6  7  1  0  0  0  0
  7  8  1  0  0  0  0
  4  9  1  0  0  0  0
  9 10  1  0  0  0  0
 10 11  1  0  0  0  0
 11 12  1  0  0  0  0
 12 13  2  0  0  0  0
 12 14  2  0  0  0  0
 14 15  1  0  0  0  0
 15 16  1  0  0  0  0
 12 17  2  0  0  0  0
 17 18  1  0  0  0  0
 18 19  1  0  0  0  0
  1 20  1  0  0  0  0
  1 21  1  0  0  0  0
  1 22  1  0  0  0  0
  2 23  1  0  0  0  0
  2 24  1  0  0  0  0
  7 25  1  0  0  0  0
  7 26  1  0  0  0  0
  8 27  1  0  0  0  0
  8 28  1  0  0  0  0
  8 29  1  0  0  0  0
 10 30  1  0  0  0  0
 10 31  1  0  0  0  0
 15 32  1  0  0  0  0
 15 33  1  0  0  0  0
 16 34  1  0  0  0  0
 16 35  1  0  0  0  0
 16 36  1  0  0  0  0
 18 37  1  0  0  0  0
 18 38  1  0  0  0  0
 19 39  1  0  0  0  0
 19 40  1  0  0  0  0
 19 41  1  0  0  0  0
M  END
