 xtb: 6.7.1 (edcfbbe)
          04092505213D

 41 40  0     0  0            999 V2000
    2.6428   -2.6995    0.9692 C   0  0  0  0  0  0  0  0  0  0  0  0
    2.6602   -1.3377    1.6347 C   0  0  0  0  0  0  0  0  0  0  0  0
    1.8237   -0.3932    0.9459 O   0  0  0  0  0  0  0  0  0  0  0  0
    2.2351    0.2365   -0.4626 P   0  0  0  0  0  0  0  0  0  0  0  0
    4.1201    0.7418   -0.6082 S   0  0  0  0  0  0  0  0  0  0  0  0
    1.1455    1.3855   -0.5706 O   0  0  0  0  0  0  0  0  0  0  0  0
    1.4879    2.7802   -0.4381 C   0  0  0  0  0  0  0  0  0  0  0  0
    1.8477    3.1395    0.9879 C   0  0  0  0  0  0  0  0  0  0  0  0
    1.5753   -1.0908   -1.9751 S   0  0  0  0  0  0  0  0  0  0  0  0
   -0.2291   -0.9299   -1.8730 C   0  0  0  0  0  0  0  0  0  0  0  0
   -0.8999   -1.4392   -0.2655 S   0  0  0  0  0  0  0  0  0  0  0  0
   -2.2915    0.1445    0.0494 P   0  0  0  0  0  0  0  0  0  0  0  0
   -2.0554    1.7739   -1.0056 S   0  0  0  0  0  0  0  0  0  0  0  0
   -2.2704    0.3205    1.6311 O   0  0  0  0  0  0  0  0  0  0  0  0
   -1.1768    0.9808    2.2956 C   0  0  0  0  0  0  0  0  0  0  0  0
   -1.4093    0.8734    3.7887 C   0  0  0  0  0  0  0  0  0  0  0  0
   -3.7221   -0.4710   -0.1785 O   0  0  0  0  0  0  0  0  0  0  0  0
   -4.1692   -1.7013    0.4508 C   0  0  0  0  0  0  0  0  0  0  0  0
   -4.2970   -2.7963   -0.5889 C   0  0  0  0  0  0  0  0  0  0  0  0
    3.1276   -2.6470   -0.0050 H   0  0  0  0  0  0  0  0  0  0  0  0
    3.1784   -3.4093    1.5913 H   0  0  0  0  0  0  0  0  0  0  0  0
    1.6180   -3.0382    0.8333 H   0  0  0  0  0  0  0  0  0  0  0  0
    3.6779   -0.9353    1.6700 H   0  0  0  0  0  0  0  0  0  0  0  0
    2.2409   -1.3775    2.6411 H   0  0  0  0  0  0  0  0  0  0  0  0
    2.3229    2.9987   -1.1101 H   0  0  0  0  0  0  0  0  0  0  0  0
    0.5892    3.2984   -0.7789 H   0  0  0  0  0  0  0  0  0  0  0  0
    2.7302    2.5801    1.2956 H   0  0  0  0  0  0  0  0  0  0  0  0
    2.0661    4.2014    1.0416 H   0  0  0  0  0  0  0  0  0  0  0  0
    1.0274    2.9049    1.6601 H   0  0  0  0  0  0  0  0  0  0  0  0
   -0.6073   -1.5948   -2.6459 H   0  0  0  0  0  0  0  0  0  0  0  0
   -0.5230    0.1061   -2.0580 H   0  0  0  0  0  0  0  0  0  0  0  0
   -0.2395    0.5003    1.9989 H   0  0  0  0  0  0  0  0  0  0  0  0
   -1.1624    2.0235    1.9629 H   0  0  0  0  0  0  0  0  0  0  0  0
   -2.3579    1.3338    4.0499 H   0  0  0  0  0  0  0  0  0  0  0  0
   -1.4296   -0.1701    4.0889 H   0  0  0  0  0  0  0  0  0  0  0  0
   -0.6069    1.3825    4.3128 H   0  0  0  0  0  0  0  0  0  0  0  0
   -3.4652   -1.9786    1.2379 H   0  0  0  0  0  0  0  0  0  0  0  0
   -5.1359   -1.4551    0.8921 H   0  0  0  0  0  0  0  0  0  0  0  0
   -4.9317   -2.4612   -1.4045 H   0  0  0  0  0  0  0  0  0  0  0  0
   -3.3204   -3.0608   -0.9864 H   0  0  0  0  0  0  0  0  0  0  0  0
   -4.7404   -3.6729   -0.1274 H   0  0  0  0  0  0  0  0  0  0  0  0
  1  2  1  0  0  0  0
  2  3  1  0  0  0  0
  3  4  1  0  0  0  0
  4  5  2  0  0  0  0
  4  6  2  0  0  0  0
  6  7  1  0  0  0  0
  7  8  1  0  0  0  0
  4  9  1  0  0  0  0
  9 10  1  0  0  0  0
 10 11  1  0  0  0  0
 11 12  1  0  0  0  0
 12 13  2  0  0  0  0
 12 14  2  0  0  0  0
 14 15  1  0  0  0  0
 15 16  1  0  0  0  0
 12 17  2  0  0  0  0
 17 18  1  0  0  0  0
 18 19  1  0  0  0  0
  1 20  1  0  0  0  0
  1 21  1  0  0  0  0
  1 22  1  0  0  0  0
  2 23  1  0  0  0  0
  2 24  1  0  0  0  0
  7 25  1  0  0  0  0
  7 26  1  0  0  0  0
  8 27  1  0  0  0  0
  8 28  1  0  0  0  0
  8 29  1  0  0  0  0
 10 30  1  0  0  0  0
 10 31  1  0  0  0  0
 15 32  1  0  0  0  0
 15 33  1  0  0  0  0
 16 34  1  0  0  0  0
 16 35  1  0  0  0  0
 16 36  1  0  0  0  0
 18 37  1  0  0  0  0
 18 38  1  0  0  0  0
 19 39  1  0  0  0  0
 19 40  1  0  0  0  0
 19 41  1  0  0  0  0
M  END
