 xtb: 6.7.1 (edcfbbe)
          04092505203D

 41 40  0     0  0            999 V2000
    5.4170   -1.5868   -0.1246 C   0  0  0  0  0  0  0  0  0  0  0  0
    4.8028   -1.0293   -1.3914 C   0  0  0  0  0  0  0  0  0  0  0  0
    3.3654   -1.1482   -1.3814 O   0  0  0  0  0  0  0  0  0  0  0  0
    2.4603   -0.2793   -0.4201 P   0  0  0  0  0  0  0  0  0  0  0  0
    3.1535    1.5165   -0.0302 S   0  0  0  0  0  0  0  0  0  0  0  0
    2.2932   -1.2945    0.7954 O   0  0  0  0  0  0  0  0  0  0  0  0
    1.4107   -1.1823    1.9239 C   0  0  0  0  0  0  0  0  0  0  0  0
    1.7742   -0.0350    2.8455 C   0  0  0  0  0  0  0  0  0  0  0  0
    0.6547   -0.3810   -1.5327 S   0  0  0  0  0  0  0  0  0  0  0  0
    0.0461    1.2931   -1.1809 C   0  0  0  0  0  0  0  0  0  0  0  0
   -0.6778    1.4549    0.4732 S   0  0  0  0  0  0  0  0  0  0  0  0
   -2.3696    0.2454    0.1031 P   0  0  0  0  0  0  0  0  0  0  0  0
   -3.2189    0.4120   -1.6601 S   0  0  0  0  0  0  0  0  0  0  0  0
   -3.3211    0.4986    1.3480 O   0  0  0  0  0  0  0  0  0  0  0  0
   -4.3230    1.5307    1.3591 C   0  0  0  0  0  0  0  0  0  0  0  0
   -3.7137    2.9179    1.3620 C   0  0  0  0  0  0  0  0  0  0  0  0
   -1.7617   -1.1774    0.4546 O   0  0  0  0  0  0  0  0  0  0  0  0
   -2.3280   -2.3996   -0.0599 C   0  0  0  0  0  0  0  0  0  0  0  0
   -3.6780   -2.6936    0.5592 C   0  0  0  0  0  0  0  0  0  0  0  0
    5.0869   -2.6100    0.0336 H   0  0  0  0  0  0  0  0  0  0  0  0
    6.4992   -1.5618   -0.2057 H   0  0  0  0  0  0  0  0  0  0  0  0
    5.1099   -0.9823    0.7279 H   0  0  0  0  0  0  0  0  0  0  0  0
    5.1058   -1.5934   -2.2743 H   0  0  0  0  0  0  0  0  0  0  0  0
    5.0641    0.0266   -1.5157 H   0  0  0  0  0  0  0  0  0  0  0  0
    0.3819   -1.0825    1.5658 H   0  0  0  0  0  0  0  0  0  0  0  0
    1.5266   -2.1440    2.4283 H   0  0  0  0  0  0  0  0  0  0  0  0
    2.8187   -0.1028    3.1390 H   0  0  0  0  0  0  0  0  0  0  0  0
    1.6106    0.9214    2.3531 H   0  0  0  0  0  0  0  0  0  0  0  0
    1.1489   -0.0817    3.7313 H   0  0  0  0  0  0  0  0  0  0  0  0
   -0.7141    1.5108   -1.9305 H   0  0  0  0  0  0  0  0  0  0  0  0
    0.8728    2.0019   -1.2297 H   0  0  0  0  0  0  0  0  0  0  0  0
   -4.9672    1.3965    0.4841 H   0  0  0  0  0  0  0  0  0  0  0  0
   -4.8883    1.3363    2.2715 H   0  0  0  0  0  0  0  0  0  0  0  0
   -2.9893    3.0116    2.1672 H   0  0  0  0  0  0  0  0  0  0  0  0
   -3.2093    3.1060    0.4149 H   0  0  0  0  0  0  0  0  0  0  0  0
   -4.4987    3.6555    1.4941 H   0  0  0  0  0  0  0  0  0  0  0  0
   -2.4074   -2.3120   -1.1484 H   0  0  0  0  0  0  0  0  0  0  0  0
   -1.5884   -3.1602    0.1935 H   0  0  0  0  0  0  0  0  0  0  0  0
   -4.3982   -1.9369    0.2504 H   0  0  0  0  0  0  0  0  0  0  0  0
   -4.0236   -3.6666    0.2245 H   0  0  0  0  0  0  0  0  0  0  0  0
   -3.6035   -2.6866    1.6434 H   0  0  0  0  0  0  0  0  0  0  0  0
  1  2  1  0  0  0  0
  2  3  1  0  0  0  0
  3  4  2  0  0  0  0
  4  5  2  0  0  0  0
  4  6  2  0  0  0  0
  6  7  1  0  0  0  0
  7  8  1  0  0  0  0
  4  9  1  0  0  0  0
  9 10  1  0  0  0  0
 10 11  1  0  0  0  0
 11 12  1  0  0  0  0
 12 13  2  0  0  0  0
 12 14  2  0  0  0  0
 14 15  1  0  0  0  0
 15 16  1  0  0  0  0
 12 17  2  0  0  0  0
 17 18  1  0  0  0  0
 18 19  1  0  0  0  0
  1 20  1  0  0  0  0
  1 21  1  0  0  0  0
  1 22  1  0  0  0  0
  2 23  1  0  0  0  0
  2 24  1  0  0  0  0
  7 25  1  0  0  0  0
  7 26  1  0  0  0  0
  8 27  1  0  0  0  0
  8 28  1  0  0  0  0
  8 29  1  0  0  0  0
 10 30  1  0  0  0  0
 10 31  1  0  0  0  0
 15 32  1  0  0  0  0
 15 33  1  0  0  0  0
 16 34  1  0  0  0  0
 16 35  1  0  0  0  0
 16 36  1  0  0  0  0
 18 37  1  0  0  0  0
 18 38  1  0  0  0  0
 19 39  1  0  0  0  0
 19 40  1  0  0  0  0
 19 41  1  0  0  0  0
M  END
