 xtb: 6.7.1 (edcfbbe)
          04092505203D

 41 40  0     0  0            999 V2000
    4.3493   -2.2756    0.2255 C   0  0  0  0  0  0  0  0  0  0  0  0
    4.7915   -0.8646   -0.1051 C   0  0  0  0  0  0  0  0  0  0  0  0
    3.7821    0.1119    0.2056 O   0  0  0  0  0  0  0  0  0  0  0  0
    2.4019    0.1901   -0.5797 P   0  0  0  0  0  0  0  0  0  0  0  0
    2.5365   -0.1374   -2.5045 S   0  0  0  0  0  0  0  0  0  0  0  0
    1.9200    1.6647   -0.2843 O   0  0  0  0  0  0  0  0  0  0  0  0
    1.3988    2.1779    0.9630 C   0  0  0  0  0  0  0  0  0  0  0  0
    2.3313    1.9463    2.1321 C   0  0  0  0  0  0  0  0  0  0  0  0
    1.0990   -1.0962    0.5045 S   0  0  0  0  0  0  0  0  0  0  0  0
   -0.1084   -1.3338   -0.8177 C   0  0  0  0  0  0  0  0  0  0  0  0
   -0.9504    0.2035   -1.3255 S   0  0  0  0  0  0  0  0  0  0  0  0
   -2.4566    0.2283    0.1518 P   0  0  0  0  0  0  0  0  0  0  0  0
   -3.7643    1.6858    0.0820 S   0  0  0  0  0  0  0  0  0  0  0  0
   -1.5352    0.1748    1.4387 O   0  0  0  0  0  0  0  0  0  0  0  0
   -2.1094    0.0939    2.7663 C   0  0  0  0  0  0  0  0  0  0  0  0
   -0.9973    0.3537    3.7606 C   0  0  0  0  0  0  0  0  0  0  0  0
   -3.1051   -1.2337    0.1731 O   0  0  0  0  0  0  0  0  0  0  0  0
   -4.2918   -1.5408   -0.5759 C   0  0  0  0  0  0  0  0  0  0  0  0
   -4.0226   -1.5732   -2.0669 C   0  0  0  0  0  0  0  0  0  0  0  0
    3.5482   -2.5807   -0.4457 H   0  0  0  0  0  0  0  0  0  0  0  0
    5.1889   -2.9515    0.0987 H   0  0  0  0  0  0  0  0  0  0  0  0
    3.9919   -2.3315    1.2504 H   0  0  0  0  0  0  0  0  0  0  0  0
    5.0394   -0.7789   -1.1676 H   0  0  0  0  0  0  0  0  0  0  0  0
    5.6447   -0.5567    0.5010 H   0  0  0  0  0  0  0  0  0  0  0  0
    1.2625    3.2408    0.7562 H   0  0  0  0  0  0  0  0  0  0  0  0
    0.4231    1.7157    1.1415 H   0  0  0  0  0  0  0  0  0  0  0  0
    3.3189    2.3394    1.9058 H   0  0  0  0  0  0  0  0  0  0  0  0
    1.9355    2.4524    3.0075 H   0  0  0  0  0  0  0  0  0  0  0  0
    2.4149    0.8822    2.3431 H   0  0  0  0  0  0  0  0  0  0  0  0
   -0.8399   -2.0527   -0.4583 H   0  0  0  0  0  0  0  0  0  0  0  0
    0.4049   -1.6885   -1.7112 H   0  0  0  0  0  0  0  0  0  0  0  0
   -2.9097    0.8373    2.8422 H   0  0  0  0  0  0  0  0  0  0  0  0
   -2.5331   -0.9050    2.8901 H   0  0  0  0  0  0  0  0  0  0  0  0
   -0.6186    1.3653    3.6464 H   0  0  0  0  0  0  0  0  0  0  0  0
   -1.3842    0.2281    4.7664 H   0  0  0  0  0  0  0  0  0  0  0  0
   -0.1860   -0.3494    3.5939 H   0  0  0  0  0  0  0  0  0  0  0  0
   -4.6009   -2.5160   -0.1977 H   0  0  0  0  0  0  0  0  0  0  0  0
   -5.0522   -0.7893   -0.3412 H   0  0  0  0  0  0  0  0  0  0  0  0
   -4.9290   -1.8595   -2.5904 H   0  0  0  0  0  0  0  0  0  0  0  0
   -3.7172   -0.5839   -2.4083 H   0  0  0  0  0  0  0  0  0  0  0  0
   -3.2338   -2.2837   -2.3008 H   0  0  0  0  0  0  0  0  0  0  0  0
  1  2  1  0  0  0  0
  2  3  1  0  0  0  0
  3  4  2  0  0  0  0
  4  5  2  0  0  0  0
  4  6  2  0  0  0  0
  6  7  1  0  0  0  0
  7  8  1  0  0  0  0
  4  9  1  0  0  0  0
  9 10  1  0  0  0  0
 10 11  1  0  0  0  0
 11 12  1  0  0  0  0
 12 13  2  0  0  0  0
 12 14  2  0  0  0  0
 14 15  1  0  0  0  0
 15 16  1  0  0  0  0
 12 17  1  0  0  0  0
 17 18  1  0  0  0  0
 18 19  1  0  0  0  0
  1 20  1  0  0  0  0
  1 21  1  0  0  0  0
  1 22  1  0  0  0  0
  2 23  1  0  0  0  0
  2 24  1  0  0  0  0
  7 25  1  0  0  0  0
  7 26  1  0  0  0  0
  8 27  1  0  0  0  0
  8 28  1  0  0  0  0
  8 29  1  0  0  0  0
 10 30  1  0  0  0  0
 10 31  1  0  0  0  0
 15 32  1  0  0  0  0
 15 33  1  0  0  0  0
 16 34  1  0  0  0  0
 16 35  1  0  0  0  0
 16 36  1  0  0  0  0
 18 37  1  0  0  0  0
 18 38  1  0  0  0  0
 19 39  1  0  0  0  0
 19 40  1  0  0  0  0
 19 41  1  0  0  0  0
M  END
