 xtb: 6.7.1 (edcfbbe)
          04092507313D

 38 37  0     0  0            999 V2000
    1.9049   -4.3094    0.2017 C   0  0  0  0  0  0  0  0  0  0  0  0
    1.2336   -3.4317   -0.8417 C   0  0  0  0  0  0  0  0  0  0  0  0
    1.2912   -2.0509   -0.4404 O   0  0  0  0  0  0  0  0  0  0  0  0
    2.1946   -1.2603   -0.9892 C   0  0  0  0  0  0  0  0  0  0  0  0
    3.0024   -1.6012   -1.8215 O   0  0  0  0  0  0  0  0  0  0  0  0
    2.0700    0.1489   -0.4424 C   0  0  0  0  0  0  0  0  0  0  0  0
    0.9562    0.9295   -1.1619 C   0  0  0  0  0  0  0  0  0  0  0  0
    1.3150    1.3108   -2.1192 H   0  0  0  0  0  0  0  0  0  0  0  0
    0.5021    2.0675   -0.2647 C   0  0  0  0  0  0  0  0  0  0  0  0
   -0.5809    2.0532    0.2882 O   0  0  0  0  0  0  0  0  0  0  0  0
    1.4076    2.9902   -0.1351 O   0  0  0  0  0  0  0  0  0  0  0  0
    1.1322    4.1144    0.7339 C   0  0  0  0  0  0  0  0  0  0  0  0
    0.3670    5.1959   -0.0096 C   0  0  0  0  0  0  0  0  0  0  0  0
   -0.5292   -0.0481   -1.5640 S   0  0  0  0  0  0  0  0  0  0  0  0
   -1.3085   -0.3857    0.3723 P   0  0  0  0  0  0  0  0  0  0  0  0
   -0.3231   -0.3352    2.0783 S   0  0  0  0  0  0  0  0  0  0  0  0
   -2.7677    0.2666    0.4497 O   0  0  0  0  0  0  0  0  0  0  0  0
   -3.1370    1.4072    1.2232 C   0  0  0  0  0  0  0  0  0  0  0  0
   -1.7413   -1.8796   -0.0209 O   0  0  0  0  0  0  0  0  0  0  0  0
   -2.3977   -2.7261    0.9267 C   0  0  0  0  0  0  0  0  0  0  0  0
    1.4614   -4.1303    1.1778 H   0  0  0  0  0  0  0  0  0  0  0  0
    1.7732   -5.3520   -0.0678 H   0  0  0  0  0  0  0  0  0  0  0  0
    2.9679   -4.0860    0.2518 H   0  0  0  0  0  0  0  0  0  0  0  0
    0.1688   -3.6549   -0.9281 H   0  0  0  0  0  0  0  0  0  0  0  0
    1.7201   -3.5285   -1.8162 H   0  0  0  0  0  0  0  0  0  0  0  0
    3.0137    0.6751   -0.5815 H   0  0  0  0  0  0  0  0  0  0  0  0
    1.8370    0.0701    0.6220 H   0  0  0  0  0  0  0  0  0  0  0  0
    0.5681    3.7553    1.5985 H   0  0  0  0  0  0  0  0  0  0  0  0
    2.1192    4.4610    1.0389 H   0  0  0  0  0  0  0  0  0  0  0  0
   -0.6083    4.8257   -0.3166 H   0  0  0  0  0  0  0  0  0  0  0  0
    0.2282    6.0487    0.6466 H   0  0  0  0  0  0  0  0  0  0  0  0
    0.9206    5.5083   -0.8905 H   0  0  0  0  0  0  0  0  0  0  0  0
   -4.1678    1.2406    1.5284 H   0  0  0  0  0  0  0  0  0  0  0  0
   -3.0532    2.3035    0.6127 H   0  0  0  0  0  0  0  0  0  0  0  0
   -2.4881    1.4952    2.0958 H   0  0  0  0  0  0  0  0  0  0  0  0
   -2.4042   -3.7191    0.4845 H   0  0  0  0  0  0  0  0  0  0  0  0
   -3.4163   -2.3790    1.0988 H   0  0  0  0  0  0  0  0  0  0  0  0
   -1.8459   -2.7313    1.8691 H   0  0  0  0  0  0  0  0  0  0  0  0
  1  2  1  0  0  0  0
  2  3  1  0  0  0  0
  3  4  1  0  0  0  0
  4  5  2  0  0  0  0
  4  6  1  0  0  0  0
  6  7  1  0  0  0  0
  7  8  1  0  0  0  0
  7  9  1  0  0  0  0
  9 10  2  0  0  0  0
  9 11  4  0  0  0  0
 11 12  1  0  0  0  0
 12 13  1  0  0  0  0
  7 14  1  0  0  0  0
 14 15  1  0  0  0  0
 15 16  2  0  0  0  0
 15 17  1  0  0  0  0
 17 18  1  0  0  0  0
 15 19  1  0  0  0  0
 19 20  1  0  0  0  0
  1 21  1  0  0  0  0
  1 22  1  0  0  0  0
  1 23  1  0  0  0  0
  2 24  1  0  0  0  0
  2 25  1  0  0  0  0
  6 26  1  0  0  0  0
  6 27  1  0  0  0  0
 12 28  1  0  0  0  0
 12 29  1  0  0  0  0
 13 30  1  0  0  0  0
 13 31  1  0  0  0  0
 13 32  1  0  0  0  0
 18 33  1  0  0  0  0
 18 34  1  0  0  0  0
 18 35  1  0  0  0  0
 20 36  1  0  0  0  0
 20 37  1  0  0  0  0
 20 38  1  0  0  0  0
M  END
