 xtb: 6.7.1 (edcfbbe)
          04092505213D

 41 40  0     0  0            999 V2000
    0.6999   -0.8666    3.4161 C   0  0  0  0  0  0  0  0  0  0  0  0
    1.6924   -0.0934    2.5726 C   0  0  0  0  0  0  0  0  0  0  0  0
    2.1424   -0.9698    1.5068 O   0  0  0  0  0  0  0  0  0  0  0  0
    2.6889   -0.4566    0.1245 P   0  0  0  0  0  0  0  0  0  0  0  0
    3.2091   -1.9942   -0.9679 S   0  0  0  0  0  0  0  0  0  0  0  0
    3.7983    0.5836    0.5818 O   0  0  0  0  0  0  0  0  0  0  0  0
    4.3801    1.6062   -0.2483 C   0  0  0  0  0  0  0  0  0  0  0  0
    4.9688    1.0557   -1.5299 C   0  0  0  0  0  0  0  0  0  0  0  0
    1.1778    0.7990   -0.7281 S   0  0  0  0  0  0  0  0  0  0  0  0
    0.1336   -0.5581   -1.3035 C   0  0  0  0  0  0  0  0  0  0  0  0
   -1.0275   -1.1216   -0.0438 S   0  0  0  0  0  0  0  0  0  0  0  0
   -2.5005    0.3799   -0.4525 P   0  0  0  0  0  0  0  0  0  0  0  0
   -2.8409    0.7139   -2.3507 S   0  0  0  0  0  0  0  0  0  0  0  0
   -1.9906    1.7109    0.2143 O   0  0  0  0  0  0  0  0  0  0  0  0
   -1.7077    1.8595    1.6277 C   0  0  0  0  0  0  0  0  0  0  0  0
   -2.8738    2.5167    2.3368 C   0  0  0  0  0  0  0  0  0  0  0  0
   -3.7052   -0.0417    0.4897 O   0  0  0  0  0  0  0  0  0  0  0  0
   -4.2876   -1.3573    0.5545 C   0  0  0  0  0  0  0  0  0  0  0  0
   -4.7481   -1.8613   -0.7967 C   0  0  0  0  0  0  0  0  0  0  0  0
   -0.1357   -1.1957    2.8031 H   0  0  0  0  0  0  0  0  0  0  0  0
    1.1791   -1.7443    3.8395 H   0  0  0  0  0  0  0  0  0  0  0  0
    0.3385   -0.2307    4.2178 H   0  0  0  0  0  0  0  0  0  0  0  0
    2.5707    0.2013    3.1493 H   0  0  0  0  0  0  0  0  0  0  0  0
    1.2390    0.7964    2.1255 H   0  0  0  0  0  0  0  0  0  0  0  0
    3.6076    2.3492   -0.4655 H   0  0  0  0  0  0  0  0  0  0  0  0
    5.1500    2.0452    0.3887 H   0  0  0  0  0  0  0  0  0  0  0  0
    4.1821    0.6367   -2.1562 H   0  0  0  0  0  0  0  0  0  0  0  0
    5.4643    1.8544   -2.0725 H   0  0  0  0  0  0  0  0  0  0  0  0
    5.6868    0.2689   -1.3107 H   0  0  0  0  0  0  0  0  0  0  0  0
    0.7715   -1.4024   -1.5730 H   0  0  0  0  0  0  0  0  0  0  0  0
   -0.4324   -0.1988   -2.1655 H   0  0  0  0  0  0  0  0  0  0  0  0
   -1.4895    0.8767    2.0536 H   0  0  0  0  0  0  0  0  0  0  0  0
   -0.8163    2.4892    1.6609 H   0  0  0  0  0  0  0  0  0  0  0  0
   -2.6146    2.6736    3.3791 H   0  0  0  0  0  0  0  0  0  0  0  0
   -3.0977    3.4739    1.8742 H   0  0  0  0  0  0  0  0  0  0  0  0
   -3.7560    1.8852    2.2754 H   0  0  0  0  0  0  0  0  0  0  0  0
   -3.5488   -2.0368    0.9884 H   0  0  0  0  0  0  0  0  0  0  0  0
   -5.1273   -1.2332    1.2404 H   0  0  0  0  0  0  0  0  0  0  0  0
   -5.2523   -2.8146   -0.6745 H   0  0  0  0  0  0  0  0  0  0  0  0
   -5.4297   -1.1492   -1.2560 H   0  0  0  0  0  0  0  0  0  0  0  0
   -3.8945   -1.9948   -1.4602 H   0  0  0  0  0  0  0  0  0  0  0  0
  1  2  1  0  0  0  0
  2  3  1  0  0  0  0
  3  4  2  0  0  0  0
  4  5  2  0  0  0  0
  4  6  2  0  0  0  0
  6  7  1  0  0  0  0
  7  8  1  0  0  0  0
  4  9  1  0  0  0  0
  9 10  1  0  0  0  0
 10 11  1  0  0  0  0
 11 12  1  0  0  0  0
 12 13  2  0  0  0  0
 12 14  2  0  0  0  0
 14 15  1  0  0  0  0
 15 16  1  0  0  0  0
 12 17  2  0  0  0  0
 17 18  1  0  0  0  0
 18 19  1  0  0  0  0
  1 20  1  0  0  0  0
  1 21  1  0  0  0  0
  1 22  1  0  0  0  0
  2 23  1  0  0  0  0
  2 24  1  0  0  0  0
  7 25  1  0  0  0  0
  7 26  1  0  0  0  0
  8 27  1  0  0  0  0
  8 28  1  0  0  0  0
  8 29  1  0  0  0  0
 10 30  1  0  0  0  0
 10 31  1  0  0  0  0
 15 32  1  0  0  0  0
 15 33  1  0  0  0  0
 16 34  1  0  0  0  0
 16 35  1  0  0  0  0
 16 36  1  0  0  0  0
 18 37  1  0  0  0  0
 18 38  1  0  0  0  0
 19 39  1  0  0  0  0
 19 40  1  0  0  0  0
 19 41  1  0  0  0  0
M  END
