 xtb: 6.7.1 (edcfbbe)
          04092507313D

 38 37  0     0  0            999 V2000
    3.0271   -3.9999    0.0670 C   0  0  0  0  0  0  0  0  0  0  0  0
    2.7561   -2.5644    0.4688 C   0  0  0  0  0  0  0  0  0  0  0  0
    2.3826   -1.8351   -0.7167 O   0  0  0  0  0  0  0  0  0  0  0  0
    2.1436   -0.5511   -0.6069 C   0  0  0  0  0  0  0  0  0  0  0  0
    2.2110    0.0808    0.4300 O   0  0  0  0  0  0  0  0  0  0  0  0
    1.7818    0.0909   -1.9321 C   0  0  0  0  0  0  0  0  0  0  0  0
    0.5048    0.9224   -1.7793 C   0  0  0  0  0  0  0  0  0  0  0  0
    0.4064    1.6121   -2.6202 H   0  0  0  0  0  0  0  0  0  0  0  0
    0.5159    1.7110   -0.4853 C   0  0  0  0  0  0  0  0  0  0  0  0
   -0.3106    1.5160    0.3938 O   0  0  0  0  0  0  0  0  0  0  0  0
    1.4350    2.6235   -0.4614 O   0  0  0  0  0  0  0  0  0  0  0  0
    1.5965    3.4147    0.7380 C   0  0  0  0  0  0  0  0  0  0  0  0
    0.6160    4.5748    0.7651 C   0  0  0  0  0  0  0  0  0  0  0  0
   -1.0033   -0.1100   -1.8119 S   0  0  0  0  0  0  0  0  0  0  0  0
   -1.5717   -0.4501    0.1986 P   0  0  0  0  0  0  0  0  0  0  0  0
   -0.4917   -1.1458    1.6939 S   0  0  0  0  0  0  0  0  0  0  0  0
   -2.7632    0.5313    0.6346 O   0  0  0  0  0  0  0  0  0  0  0  0
   -2.7183    1.4819    1.6958 C   0  0  0  0  0  0  0  0  0  0  0  0
   -2.4904   -1.6430   -0.3942 O   0  0  0  0  0  0  0  0  0  0  0  0
   -3.3069   -2.4575    0.4452 C   0  0  0  0  0  0  0  0  0  0  0  0
    2.1333   -4.4367   -0.3684 H   0  0  0  0  0  0  0  0  0  0  0  0
    3.8305   -4.0373   -0.6625 H   0  0  0  0  0  0  0  0  0  0  0  0
    3.3103   -4.5684    0.9463 H   0  0  0  0  0  0  0  0  0  0  0  0
    3.6391   -2.0842    0.9018 H   0  0  0  0  0  0  0  0  0  0  0  0
    1.9365   -2.4870    1.1916 H   0  0  0  0  0  0  0  0  0  0  0  0
    1.6455   -0.6754   -2.6928 H   0  0  0  0  0  0  0  0  0  0  0  0
    2.6035    0.7539   -2.2111 H   0  0  0  0  0  0  0  0  0  0  0  0
    1.4650    2.7565    1.6008 H   0  0  0  0  0  0  0  0  0  0  0  0
    2.6275    3.7631    0.6838 H   0  0  0  0  0  0  0  0  0  0  0  0
    0.7353    5.1869   -0.1244 H   0  0  0  0  0  0  0  0  0  0  0  0
   -0.4061    4.2059    0.8095 H   0  0  0  0  0  0  0  0  0  0  0  0
    0.8071    5.1799    1.6449 H   0  0  0  0  0  0  0  0  0  0  0  0
   -1.9415    1.2117    2.4129 H   0  0  0  0  0  0  0  0  0  0  0  0
   -3.6983    1.4543    2.1682 H   0  0  0  0  0  0  0  0  0  0  0  0
   -2.5161    2.4703    1.2875 H   0  0  0  0  0  0  0  0  0  0  0  0
   -4.2033   -1.9111    0.7379 H   0  0  0  0  0  0  0  0  0  0  0  0
   -2.7480   -2.7561    1.3355 H   0  0  0  0  0  0  0  0  0  0  0  0
   -3.5666   -3.3293   -0.1502 H   0  0  0  0  0  0  0  0  0  0  0  0
  1  2  1  0  0  0  0
  2  3  1  0  0  0  0
  3  4  4  0  0  0  0
  4  5  2  0  0  0  0
  4  6  1  0  0  0  0
  6  7  1  0  0  0  0
  7  8  1  0  0  0  0
  7  9  1  0  0  0  0
  9 10  2  0  0  0  0
  9 11  4  0  0  0  0
 11 12  1  0  0  0  0
 12 13  1  0  0  0  0
  7 14  1  0  0  0  0
 14 15  1  0  0  0  0
 15 16  2  0  0  0  0
 15 17  1  0  0  0  0
 17 18  1  0  0  0  0
 15 19  1  0  0  0  0
 19 20  1  0  0  0  0
  1 21  1  0  0  0  0
  1 22  1  0  0  0  0
  1 23  1  0  0  0  0
  2 24  1  0  0  0  0
  2 25  1  0  0  0  0
  6 26  1  0  0  0  0
  6 27  1  0  0  0  0
 12 28  1  0  0  0  0
 12 29  1  0  0  0  0
 13 30  1  0  0  0  0
 13 31  1  0  0  0  0
 13 32  1  0  0  0  0
 18 33  1  0  0  0  0
 18 34  1  0  0  0  0
 18 35  1  0  0  0  0
 20 36  1  0  0  0  0
 20 37  1  0  0  0  0
 20 38  1  0  0  0  0
M  END
