 xtb: 6.7.1 (edcfbbe)
          04092505213D

 41 40  0     0  0            999 V2000
    5.8998   -0.2795   -1.0314 C   0  0  0  0  0  0  0  0  0  0  0  0
    4.5831    0.4646   -0.9442 C   0  0  0  0  0  0  0  0  0  0  0  0
    3.6218   -0.4085   -0.3139 O   0  0  0  0  0  0  0  0  0  0  0  0
    2.2637    0.1637    0.2810 P   0  0  0  0  0  0  0  0  0  0  0  0
    2.4518    1.6669    1.5144 S   0  0  0  0  0  0  0  0  0  0  0  0
    1.6392   -1.1140    0.9546 O   0  0  0  0  0  0  0  0  0  0  0  0
    1.6340   -2.4192    0.3139 C   0  0  0  0  0  0  0  0  0  0  0  0
    0.7955   -3.3454    1.1672 C   0  0  0  0  0  0  0  0  0  0  0  0
    1.1365    0.5694   -1.4862 S   0  0  0  0  0  0  0  0  0  0  0  0
   -0.0272    1.7380   -0.7249 C   0  0  0  0  0  0  0  0  0  0  0  0
   -0.9298    1.0577    0.6864 S   0  0  0  0  0  0  0  0  0  0  0  0
   -2.3199   -0.1446   -0.4176 P   0  0  0  0  0  0  0  0  0  0  0  0
   -1.5838   -1.7143   -1.3235 S   0  0  0  0  0  0  0  0  0  0  0  0
   -3.0161    0.8436   -1.4330 O   0  0  0  0  0  0  0  0  0  0  0  0
   -4.1419    1.7093   -1.1395 C   0  0  0  0  0  0  0  0  0  0  0  0
   -3.8092    2.7867   -0.1290 C   0  0  0  0  0  0  0  0  0  0  0  0
   -3.4714   -0.4593    0.6300 O   0  0  0  0  0  0  0  0  0  0  0  0
   -3.4006   -1.5841    1.5230 C   0  0  0  0  0  0  0  0  0  0  0  0
   -2.4729   -1.3165    2.6910 C   0  0  0  0  0  0  0  0  0  0  0  0
    5.7760   -1.1874   -1.6146 H   0  0  0  0  0  0  0  0  0  0  0  0
    6.6363    0.3576   -1.5095 H   0  0  0  0  0  0  0  0  0  0  0  0
    6.2454   -0.5432   -0.0358 H   0  0  0  0  0  0  0  0  0  0  0  0
    4.2043    0.7275   -1.9356 H   0  0  0  0  0  0  0  0  0  0  0  0
    4.6734    1.3739   -0.3408 H   0  0  0  0  0  0  0  0  0  0  0  0
    1.2111   -2.3151   -0.6899 H   0  0  0  0  0  0  0  0  0  0  0  0
    2.6679   -2.7592    0.2411 H   0  0  0  0  0  0  0  0  0  0  0  0
   -0.2455   -3.0359    1.1413 H   0  0  0  0  0  0  0  0  0  0  0  0
    0.8708   -4.3524    0.7705 H   0  0  0  0  0  0  0  0  0  0  0  0
    1.1492   -3.3291    2.1940 H   0  0  0  0  0  0  0  0  0  0  0  0
   -0.7204    2.0339   -1.5094 H   0  0  0  0  0  0  0  0  0  0  0  0
    0.5307    2.5900   -0.3376 H   0  0  0  0  0  0  0  0  0  0  0  0
   -4.3866    2.1331   -2.1148 H   0  0  0  0  0  0  0  0  0  0  0  0
   -4.9657    1.0871   -0.7865 H   0  0  0  0  0  0  0  0  0  0  0  0
   -3.5757    2.3430    0.8361 H   0  0  0  0  0  0  0  0  0  0  0  0
   -2.9582    3.3772   -0.4592 H   0  0  0  0  0  0  0  0  0  0  0  0
   -4.6697    3.4394   -0.0178 H   0  0  0  0  0  0  0  0  0  0  0  0
   -4.4302   -1.7243    1.8552 H   0  0  0  0  0  0  0  0  0  0  0  0
   -3.0728   -2.4599    0.9526 H   0  0  0  0  0  0  0  0  0  0  0  0
   -2.7799   -0.4189    3.2211 H   0  0  0  0  0  0  0  0  0  0  0  0
   -2.4985   -2.1621    3.3709 H   0  0  0  0  0  0  0  0  0  0  0  0
   -1.4507   -1.1756    2.3413 H   0  0  0  0  0  0  0  0  0  0  0  0
  1  2  1  0  0  0  0
  2  3  1  0  0  0  0
  3  4  2  0  0  0  0
  4  5  2  0  0  0  0
  4  6  2  0  0  0  0
  6  7  1  0  0  0  0
  7  8  1  0  0  0  0
  4  9  1  0  0  0  0
  9 10  1  0  0  0  0
 10 11  1  0  0  0  0
 11 12  1  0  0  0  0
 12 13  2  0  0  0  0
 12 14  2  0  0  0  0
 14 15  1  0  0  0  0
 15 16  1  0  0  0  0
 12 17  2  0  0  0  0
 17 18  1  0  0  0  0
 18 19  1  0  0  0  0
  1 20  1  0  0  0  0
  1 21  1  0  0  0  0
  1 22  1  0  0  0  0
  2 23  1  0  0  0  0
  2 24  1  0  0  0  0
  7 25  1  0  0  0  0
  7 26  1  0  0  0  0
  8 27  1  0  0  0  0
  8 28  1  0  0  0  0
  8 29  1  0  0  0  0
 10 30  1  0  0  0  0
 10 31  1  0  0  0  0
 15 32  1  0  0  0  0
 15 33  1  0  0  0  0
 16 34  1  0  0  0  0
 16 35  1  0  0  0  0
 16 36  1  0  0  0  0
 18 37  1  0  0  0  0
 18 38  1  0  0  0  0
 19 39  1  0  0  0  0
 19 40  1  0  0  0  0
 19 41  1  0  0  0  0
M  END
