 xtb: 6.7.1 (edcfbbe)
          04092505203D

 41 40  0     0  0            999 V2000
    4.2243   -0.8179   -2.3288 C   0  0  0  0  0  0  0  0  0  0  0  0
    4.4743    0.2723   -1.3075 C   0  0  0  0  0  0  0  0  0  0  0  0
    3.5711    0.2057   -0.1882 O   0  0  0  0  0  0  0  0  0  0  0  0
    2.0035    0.4567   -0.3257 P   0  0  0  0  0  0  0  0  0  0  0  0
    1.5190    1.8656   -1.5880 S   0  0  0  0  0  0  0  0  0  0  0  0
    1.6236    0.8004    1.1639 O   0  0  0  0  0  0  0  0  0  0  0  0
    2.1763    0.1067    2.3124 C   0  0  0  0  0  0  0  0  0  0  0  0
    1.6435    0.7917    3.5519 C   0  0  0  0  0  0  0  0  0  0  0  0
    1.2507   -1.4977   -0.7567 S   0  0  0  0  0  0  0  0  0  0  0  0
    0.0033   -1.0850   -2.0054 C   0  0  0  0  0  0  0  0  0  0  0  0
   -1.7186   -1.3571   -1.4870 S   0  0  0  0  0  0  0  0  0  0  0  0
   -1.7332   -0.3739    0.4098 P   0  0  0  0  0  0  0  0  0  0  0  0
   -0.9483   -1.3239    1.9266 S   0  0  0  0  0  0  0  0  0  0  0  0
   -3.2844   -0.0854    0.5847 O   0  0  0  0  0  0  0  0  0  0  0  0
   -4.2065   -1.1545    0.8806 C   0  0  0  0  0  0  0  0  0  0  0  0
   -5.5177   -0.5307    1.3125 C   0  0  0  0  0  0  0  0  0  0  0  0
   -1.1258    1.0595    0.1634 O   0  0  0  0  0  0  0  0  0  0  0  0
   -1.8234    2.0717   -0.6140 C   0  0  0  0  0  0  0  0  0  0  0  0
   -2.5630    3.0204    0.3038 C   0  0  0  0  0  0  0  0  0  0  0  0
    3.2740   -0.6476   -2.8323 H   0  0  0  0  0  0  0  0  0  0  0  0
    5.0200   -0.8012   -3.0666 H   0  0  0  0  0  0  0  0  0  0  0  0
    4.1989   -1.7918   -1.8465 H   0  0  0  0  0  0  0  0  0  0  0  0
    4.3761    1.2600   -1.7682 H   0  0  0  0  0  0  0  0  0  0  0  0
    5.4586    0.1738   -0.8474 H   0  0  0  0  0  0  0  0  0  0  0  0
    1.8562   -0.9380    2.2698 H   0  0  0  0  0  0  0  0  0  0  0  0
    3.2647    0.1608    2.2541 H   0  0  0  0  0  0  0  0  0  0  0  0
    2.0702    0.3168    4.4292 H   0  0  0  0  0  0  0  0  0  0  0  0
    1.9077    1.8453    3.5406 H   0  0  0  0  0  0  0  0  0  0  0  0
    0.5612    0.6971    3.5868 H   0  0  0  0  0  0  0  0  0  0  0  0
    0.1496   -1.7514   -2.8522 H   0  0  0  0  0  0  0  0  0  0  0  0
    0.1390   -0.0394   -2.2979 H   0  0  0  0  0  0  0  0  0  0  0  0
   -4.3276   -1.7586   -0.0229 H   0  0  0  0  0  0  0  0  0  0  0  0
   -3.7750   -1.7767    1.6715 H   0  0  0  0  0  0  0  0  0  0  0  0
   -5.9068    0.1031    0.5210 H   0  0  0  0  0  0  0  0  0  0  0  0
   -6.2316   -1.3195    1.5249 H   0  0  0  0  0  0  0  0  0  0  0  0
   -5.3704    0.0685    2.2067 H   0  0  0  0  0  0  0  0  0  0  0  0
   -1.0342    2.5851   -1.1677 H   0  0  0  0  0  0  0  0  0  0  0  0
   -2.5042    1.5769   -1.3107 H   0  0  0  0  0  0  0  0  0  0  0  0
   -3.0177    3.8044   -0.2936 H   0  0  0  0  0  0  0  0  0  0  0  0
   -3.3362    2.4889    0.8525 H   0  0  0  0  0  0  0  0  0  0  0  0
   -1.8695    3.4654    1.0124 H   0  0  0  0  0  0  0  0  0  0  0  0
  1  2  1  0  0  0  0
  2  3  1  0  0  0  0
  3  4  2  0  0  0  0
  4  5  2  0  0  0  0
  4  6  2  0  0  0  0
  6  7  1  0  0  0  0
  7  8  1  0  0  0  0
  4  9  1  0  0  0  0
  9 10  1  0  0  0  0
 10 11  1  0  0  0  0
 11 12  1  0  0  0  0
 12 13  2  0  0  0  0
 12 14  2  0  0  0  0
 14 15  1  0  0  0  0
 15 16  1  0  0  0  0
 12 17  2  0  0  0  0
 17 18  1  0  0  0  0
 18 19  1  0  0  0  0
  1 20  1  0  0  0  0
  1 21  1  0  0  0  0
  1 22  1  0  0  0  0
  2 23  1  0  0  0  0
  2 24  1  0  0  0  0
  7 25  1  0  0  0  0
  7 26  1  0  0  0  0
  8 27  1  0  0  0  0
  8 28  1  0  0  0  0
  8 29  1  0  0  0  0
 10 30  1  0  0  0  0
 10 31  1  0  0  0  0
 15 32  1  0  0  0  0
 15 33  1  0  0  0  0
 16 34  1  0  0  0  0
 16 35  1  0  0  0  0
 16 36  1  0  0  0  0
 18 37  1  0  0  0  0
 18 38  1  0  0  0  0
 19 39  1  0  0  0  0
 19 40  1  0  0  0  0
 19 41  1  0  0  0  0
M  END
