 xtb: 6.7.1 (edcfbbe)
          04092505203D

 41 40  0     0  0            999 V2000
    2.5917   -2.9628   -1.4197 C   0  0  0  0  0  0  0  0  0  0  0  0
    3.4260   -1.7766   -1.8560 C   0  0  0  0  0  0  0  0  0  0  0  0
    3.5865   -0.7927   -0.8086 O   0  0  0  0  0  0  0  0  0  0  0  0
    2.4252    0.0164   -0.0892 P   0  0  0  0  0  0  0  0  0  0  0  0
    3.1740    1.5966    0.7810 S   0  0  0  0  0  0  0  0  0  0  0  0
    1.6778   -1.0112    0.8814 O   0  0  0  0  0  0  0  0  0  0  0  0
    1.9623   -1.1214    2.2904 C   0  0  0  0  0  0  0  0  0  0  0  0
    0.9449   -0.3571    3.1138 C   0  0  0  0  0  0  0  0  0  0  0  0
    0.9762    0.2835   -1.6031 S   0  0  0  0  0  0  0  0  0  0  0  0
    0.2525    1.8151   -0.9635 C   0  0  0  0  0  0  0  0  0  0  0  0
   -0.5909    1.6092    0.6262 S   0  0  0  0  0  0  0  0  0  0  0  0
   -2.0308    0.2100   -0.0325 P   0  0  0  0  0  0  0  0  0  0  0  0
   -2.7443    0.4427   -1.8478 S   0  0  0  0  0  0  0  0  0  0  0  0
   -3.1172    0.1982    1.1273 O   0  0  0  0  0  0  0  0  0  0  0  0
   -4.2644    1.0647    1.1226 C   0  0  0  0  0  0  0  0  0  0  0  0
   -3.8850    2.5171    1.3285 C   0  0  0  0  0  0  0  0  0  0  0  0
   -1.2558   -1.1398    0.2597 O   0  0  0  0  0  0  0  0  0  0  0  0
   -1.5597   -2.3676   -0.4302 C   0  0  0  0  0  0  0  0  0  0  0  0
   -2.9293   -2.8973   -0.0606 C   0  0  0  0  0  0  0  0  0  0  0  0
    3.0246   -3.4251   -0.5363 H   0  0  0  0  0  0  0  0  0  0  0  0
    1.5776   -2.6402   -1.1917 H   0  0  0  0  0  0  0  0  0  0  0  0
    2.5590   -3.6890   -2.2259 H   0  0  0  0  0  0  0  0  0  0  0  0
    2.9772   -1.2836   -2.7224 H   0  0  0  0  0  0  0  0  0  0  0  0
    4.4525   -2.0666   -2.0862 H   0  0  0  0  0  0  0  0  0  0  0  0
    1.9152   -2.1922    2.4970 H   0  0  0  0  0  0  0  0  0  0  0  0
    2.9738   -0.7519    2.4841 H   0  0  0  0  0  0  0  0  0  0  0  0
    1.1021   -0.5729    4.1657 H   0  0  0  0  0  0  0  0  0  0  0  0
    1.0546    0.7128    2.9495 H   0  0  0  0  0  0  0  0  0  0  0  0
   -0.0625   -0.6520    2.8296 H   0  0  0  0  0  0  0  0  0  0  0  0
   -0.4587    2.1488   -1.7186 H   0  0  0  0  0  0  0  0  0  0  0  0
    1.0392    2.5512   -0.8004 H   0  0  0  0  0  0  0  0  0  0  0  0
   -4.7901    0.9368    0.1708 H   0  0  0  0  0  0  0  0  0  0  0  0
   -4.8799    0.6892    1.9412 H   0  0  0  0  0  0  0  0  0  0  0  0
   -3.3270    2.8831    0.4677 H   0  0  0  0  0  0  0  0  0  0  0  0
   -4.7859    3.1116    1.4419 H   0  0  0  0  0  0  0  0  0  0  0  0
   -3.2664    2.6243    2.2161 H   0  0  0  0  0  0  0  0  0  0  0  0
   -1.4913   -2.1856   -1.5079 H   0  0  0  0  0  0  0  0  0  0  0  0
   -0.7654   -3.0469   -0.1168 H   0  0  0  0  0  0  0  0  0  0  0  0
   -3.0803   -3.8645   -0.5296 H   0  0  0  0  0  0  0  0  0  0  0  0
   -3.0158   -2.9984    1.0181 H   0  0  0  0  0  0  0  0  0  0  0  0
   -3.6976   -2.2096   -0.4126 H   0  0  0  0  0  0  0  0  0  0  0  0
  1  2  1  0  0  0  0
  2  3  1  0  0  0  0
  3  4  2  0  0  0  0
  4  5  2  0  0  0  0
  4  6  1  0  0  0  0
  6  7  1  0  0  0  0
  7  8  1  0  0  0  0
  4  9  1  0  0  0  0
  9 10  1  0  0  0  0
 10 11  1  0  0  0  0
 11 12  1  0  0  0  0
 12 13  2  0  0  0  0
 12 14  2  0  0  0  0
 14 15  1  0  0  0  0
 15 16  1  0  0  0  0
 12 17  2  0  0  0  0
 17 18  1  0  0  0  0
 18 19  1  0  0  0  0
  1 20  1  0  0  0  0
  1 21  1  0  0  0  0
  1 22  1  0  0  0  0
  2 23  1  0  0  0  0
  2 24  1  0  0  0  0
  7 25  1  0  0  0  0
  7 26  1  0  0  0  0
  8 27  1  0  0  0  0
  8 28  1  0  0  0  0
  8 29  1  0  0  0  0
 10 30  1  0  0  0  0
 10 31  1  0  0  0  0
 15 32  1  0  0  0  0
 15 33  1  0  0  0  0
 16 34  1  0  0  0  0
 16 35  1  0  0  0  0
 16 36  1  0  0  0  0
 18 37  1  0  0  0  0
 18 38  1  0  0  0  0
 19 39  1  0  0  0  0
 19 40  1  0  0  0  0
 19 41  1  0  0  0  0
M  END
