 xtb: 6.7.1 (edcfbbe)
          04092505213D

 41 40  0     0  0            999 V2000
    5.0078   -2.5942   -1.1070 C   0  0  0  0  0  0  0  0  0  0  0  0
    3.9903   -1.5435   -1.5038 C   0  0  0  0  0  0  0  0  0  0  0  0
    2.9977   -1.4702   -0.4608 O   0  0  0  0  0  0  0  0  0  0  0  0
    2.1066   -0.1753   -0.2269 P   0  0  0  0  0  0  0  0  0  0  0  0
    3.1013    1.5187   -0.2263 S   0  0  0  0  0  0  0  0  0  0  0  0
    1.3569   -0.5568    1.1074 O   0  0  0  0  0  0  0  0  0  0  0  0
    1.8207   -0.1635    2.4204 C   0  0  0  0  0  0  0  0  0  0  0  0
    0.6177    0.2033    3.2645 C   0  0  0  0  0  0  0  0  0  0  0  0
    0.5769   -0.3674   -1.6689 S   0  0  0  0  0  0  0  0  0  0  0  0
   -0.0301    1.3351   -1.5459 C   0  0  0  0  0  0  0  0  0  0  0  0
   -0.7941    1.6937    0.0510 S   0  0  0  0  0  0  0  0  0  0  0  0
   -2.4423    0.3660   -0.1554 P   0  0  0  0  0  0  0  0  0  0  0  0
   -3.1814    0.2017   -1.9555 S   0  0  0  0  0  0  0  0  0  0  0  0
   -3.5085    0.9172    0.8708 O   0  0  0  0  0  0  0  0  0  0  0  0
   -3.2990    0.9935    2.3058 C   0  0  0  0  0  0  0  0  0  0  0  0
   -2.9111    2.3986    2.7197 C   0  0  0  0  0  0  0  0  0  0  0  0
   -1.9313   -0.9927    0.5135 O   0  0  0  0  0  0  0  0  0  0  0  0
   -1.9342   -2.2762   -0.1475 C   0  0  0  0  0  0  0  0  0  0  0  0
   -0.8247   -3.1246    0.4384 C   0  0  0  0  0  0  0  0  0  0  0  0
    4.5144   -3.5506   -0.9613 H   0  0  0  0  0  0  0  0  0  0  0  0
    5.7486   -2.6871   -1.8943 H   0  0  0  0  0  0  0  0  0  0  0  0
    5.5011   -2.3069   -0.1827 H   0  0  0  0  0  0  0  0  0  0  0  0
    3.4836   -1.8084   -2.4353 H   0  0  0  0  0  0  0  0  0  0  0  0
    4.4545   -0.5576   -1.6145 H   0  0  0  0  0  0  0  0  0  0  0  0
    2.3600   -1.0164    2.8377 H   0  0  0  0  0  0  0  0  0  0  0  0
    2.5062    0.6839    2.3137 H   0  0  0  0  0  0  0  0  0  0  0  0
    0.9472    0.4355    4.2719 H   0  0  0  0  0  0  0  0  0  0  0  0
    0.1160    1.0701    2.8423 H   0  0  0  0  0  0  0  0  0  0  0  0
   -0.0785   -0.6302    3.2953 H   0  0  0  0  0  0  0  0  0  0  0  0
   -0.7674    1.4609   -2.3387 H   0  0  0  0  0  0  0  0  0  0  0  0
    0.8033    2.0286   -1.6578 H   0  0  0  0  0  0  0  0  0  0  0  0
   -4.2629    0.7099    2.7318 H   0  0  0  0  0  0  0  0  0  0  0  0
   -2.5380    0.2657    2.5927 H   0  0  0  0  0  0  0  0  0  0  0  0
   -2.8281    2.4386    3.8012 H   0  0  0  0  0  0  0  0  0  0  0  0
   -1.9579    2.6806    2.2771 H   0  0  0  0  0  0  0  0  0  0  0  0
   -3.6673    3.1057    2.3904 H   0  0  0  0  0  0  0  0  0  0  0  0
   -2.9132   -2.7307    0.0249 H   0  0  0  0  0  0  0  0  0  0  0  0
   -1.8004   -2.1255   -1.2231 H   0  0  0  0  0  0  0  0  0  0  0  0
   -0.9671   -3.2390    1.5090 H   0  0  0  0  0  0  0  0  0  0  0  0
   -0.8436   -4.1013   -0.0339 H   0  0  0  0  0  0  0  0  0  0  0  0
    0.1425   -2.6612    0.2597 H   0  0  0  0  0  0  0  0  0  0  0  0
  1  2  1  0  0  0  0
  2  3  1  0  0  0  0
  3  4  2  0  0  0  0
  4  5  2  0  0  0  0
  4  6  2  0  0  0  0
  6  7  1  0  0  0  0
  7  8  1  0  0  0  0
  4  9  1  0  0  0  0
  9 10  1  0  0  0  0
 10 11  1  0  0  0  0
 11 12  1  0  0  0  0
 12 13  2  0  0  0  0
 12 14  2  0  0  0  0
 14 15  1  0  0  0  0
 15 16  1  0  0  0  0
 12 17  1  0  0  0  0
 17 18  1  0  0  0  0
 18 19  1  0  0  0  0
  1 20  1  0  0  0  0
  1 21  1  0  0  0  0
  1 22  1  0  0  0  0
  2 23  1  0  0  0  0
  2 24  1  0  0  0  0
  7 25  1  0  0  0  0
  7 26  1  0  0  0  0
  8 27  1  0  0  0  0
  8 28  1  0  0  0  0
  8 29  1  0  0  0  0
 10 30  1  0  0  0  0
 10 31  1  0  0  0  0
 15 32  1  0  0  0  0
 15 33  1  0  0  0  0
 16 34  1  0  0  0  0
 16 35  1  0  0  0  0
 16 36  1  0  0  0  0
 18 37  1  0  0  0  0
 18 38  1  0  0  0  0
 19 39  1  0  0  0  0
 19 40  1  0  0  0  0
 19 41  1  0  0  0  0
M  END
