 xtb: 6.7.1 (edcfbbe)
          04092505203D

 41 40  0     0  0            999 V2000
    5.0110    1.1251   -0.5076 C   0  0  0  0  0  0  0  0  0  0  0  0
    4.3177    0.0727   -1.3466 C   0  0  0  0  0  0  0  0  0  0  0  0
    3.4593   -0.7852   -0.5709 O   0  0  0  0  0  0  0  0  0  0  0  0
    2.2943   -0.2926    0.3891 P   0  0  0  0  0  0  0  0  0  0  0  0
    2.7676    0.4241    2.1448 S   0  0  0  0  0  0  0  0  0  0  0  0
    1.4397   -1.6059    0.5668 O   0  0  0  0  0  0  0  0  0  0  0  0
    1.0963   -2.5019   -0.5170 C   0  0  0  0  0  0  0  0  0  0  0  0
    2.0430   -3.6829   -0.5473 C   0  0  0  0  0  0  0  0  0  0  0  0
    1.1828    1.0280   -0.8743 S   0  0  0  0  0  0  0  0  0  0  0  0
    0.3043    1.8851    0.4522 C   0  0  0  0  0  0  0  0  0  0  0  0
   -0.8302    0.8232    1.3905 S   0  0  0  0  0  0  0  0  0  0  0  0
   -2.2424    0.3880   -0.1291 P   0  0  0  0  0  0  0  0  0  0  0  0
   -1.7924   -0.8282   -1.6040 S   0  0  0  0  0  0  0  0  0  0  0  0
   -2.6087    1.8692   -0.5490 O   0  0  0  0  0  0  0  0  0  0  0  0
   -3.2601    2.1673   -1.8034 C   0  0  0  0  0  0  0  0  0  0  0  0
   -4.6937    1.6814   -1.8193 C   0  0  0  0  0  0  0  0  0  0  0  0
   -3.5153   -0.0747    0.7046 O   0  0  0  0  0  0  0  0  0  0  0  0
   -3.7496   -1.4538    1.0303 C   0  0  0  0  0  0  0  0  0  0  0  0
   -2.7791   -1.9548    2.0811 C   0  0  0  0  0  0  0  0  0  0  0  0
    4.2802    1.8178   -0.0929 H   0  0  0  0  0  0  0  0  0  0  0  0
    5.5472    0.6606    0.3164 H   0  0  0  0  0  0  0  0  0  0  0  0
    5.7102    1.6765   -1.1279 H   0  0  0  0  0  0  0  0  0  0  0  0
    5.0355   -0.6188   -1.7915 H   0  0  0  0  0  0  0  0  0  0  0  0
    3.7150    0.5376   -2.1320 H   0  0  0  0  0  0  0  0  0  0  0  0
    0.0720   -2.8179   -0.3082 H   0  0  0  0  0  0  0  0  0  0  0  0
    1.1090   -1.9508   -1.4613 H   0  0  0  0  0  0  0  0  0  0  0  0
    3.0566   -3.3469   -0.7494 H   0  0  0  0  0  0  0  0  0  0  0  0
    2.0275   -4.1937    0.4115 H   0  0  0  0  0  0  0  0  0  0  0  0
    1.7269   -4.3684   -1.3272 H   0  0  0  0  0  0  0  0  0  0  0  0
   -0.2454    2.7045   -0.0035 H   0  0  0  0  0  0  0  0  0  0  0  0
    1.0285    2.2455    1.1841 H   0  0  0  0  0  0  0  0  0  0  0  0
   -3.1996    3.2539   -1.8775 H   0  0  0  0  0  0  0  0  0  0  0  0
   -2.6847    1.7041   -2.6114 H   0  0  0  0  0  0  0  0  0  0  0  0
   -5.2312    2.0687   -0.9577 H   0  0  0  0  0  0  0  0  0  0  0  0
   -5.1777    2.0181   -2.7307 H   0  0  0  0  0  0  0  0  0  0  0  0
   -4.7161    0.5929   -1.7878 H   0  0  0  0  0  0  0  0  0  0  0  0
   -4.7783   -1.4718    1.3920 H   0  0  0  0  0  0  0  0  0  0  0  0
   -3.6652   -2.0463    0.1127 H   0  0  0  0  0  0  0  0  0  0  0  0
   -3.0289   -2.9762    2.3499 H   0  0  0  0  0  0  0  0  0  0  0  0
   -1.7602   -1.9294    1.6929 H   0  0  0  0  0  0  0  0  0  0  0  0
   -2.8223   -1.3260    2.9670 H   0  0  0  0  0  0  0  0  0  0  0  0
  1  2  1  0  0  0  0
  2  3  1  0  0  0  0
  3  4  2  0  0  0  0
  4  5  2  0  0  0  0
  4  6  2  0  0  0  0
  6  7  1  0  0  0  0
  7  8  1  0  0  0  0
  4  9  1  0  0  0  0
  9 10  1  0  0  0  0
 10 11  1  0  0  0  0
 11 12  1  0  0  0  0
 12 13  2  0  0  0  0
 12 14  2  0  0  0  0
 14 15  1  0  0  0  0
 15 16  1  0  0  0  0
 12 17  2  0  0  0  0
 17 18  1  0  0  0  0
 18 19  1  0  0  0  0
  1 20  1  0  0  0  0
  1 21  1  0  0  0  0
  1 22  1  0  0  0  0
  2 23  1  0  0  0  0
  2 24  1  0  0  0  0
  7 25  1  0  0  0  0
  7 26  1  0  0  0  0
  8 27  1  0  0  0  0
  8 28  1  0  0  0  0
  8 29  1  0  0  0  0
 10 30  1  0  0  0  0
 10 31  1  0  0  0  0
 15 32  1  0  0  0  0
 15 33  1  0  0  0  0
 16 34  1  0  0  0  0
 16 35  1  0  0  0  0
 16 36  1  0  0  0  0
 18 37  1  0  0  0  0
 18 38  1  0  0  0  0
 19 39  1  0  0  0  0
 19 40  1  0  0  0  0
 19 41  1  0  0  0  0
M  END
