 xtb: 6.7.1 (edcfbbe)
          04092505213D

 41 40  0     0  0            999 V2000
    4.7473    1.0441   -0.8738 C   0  0  0  0  0  0  0  0  0  0  0  0
    4.3745    1.0147    0.5940 C   0  0  0  0  0  0  0  0  0  0  0  0
    3.3975    0.0021    0.8922 O   0  0  0  0  0  0  0  0  0  0  0  0
    1.9063    0.0587    0.3436 P   0  0  0  0  0  0  0  0  0  0  0  0
    1.0729    1.8252    0.3513 S   0  0  0  0  0  0  0  0  0  0  0  0
    1.1720   -0.9846    1.2750 O   0  0  0  0  0  0  0  0  0  0  0  0
    1.6819   -2.3299    1.4681 C   0  0  0  0  0  0  0  0  0  0  0  0
    2.3540   -2.4486    2.8201 C   0  0  0  0  0  0  0  0  0  0  0  0
    2.0243   -0.9220   -1.5495 S   0  0  0  0  0  0  0  0  0  0  0  0
    0.3735   -0.4844   -2.1177 C   0  0  0  0  0  0  0  0  0  0  0  0
   -0.9525   -1.4249   -1.2594 S   0  0  0  0  0  0  0  0  0  0  0  0
   -2.2421    0.0535   -0.4757 P   0  0  0  0  0  0  0  0  0  0  0  0
   -4.1530   -0.3797   -0.5234 S   0  0  0  0  0  0  0  0  0  0  0  0
   -1.7961    1.2873   -1.3625 O   0  0  0  0  0  0  0  0  0  0  0  0
   -2.6165    2.4697   -1.4772 C   0  0  0  0  0  0  0  0  0  0  0  0
   -2.6402    3.2681   -0.1917 C   0  0  0  0  0  0  0  0  0  0  0  0
   -1.7078    0.4185    0.9829 O   0  0  0  0  0  0  0  0  0  0  0  0
   -2.3321   -0.0945    2.1682 C   0  0  0  0  0  0  0  0  0  0  0  0
   -1.9894   -1.5524    2.3944 C   0  0  0  0  0  0  0  0  0  0  0  0
    5.5814    1.7238   -1.0164 H   0  0  0  0  0  0  0  0  0  0  0  0
    5.0281    0.0506   -1.2140 H   0  0  0  0  0  0  0  0  0  0  0  0
    3.9038    1.3930   -1.4670 H   0  0  0  0  0  0  0  0  0  0  0  0
    3.9738    1.9831    0.9091 H   0  0  0  0  0  0  0  0  0  0  0  0
    5.2266    0.7448    1.2194 H   0  0  0  0  0  0  0  0  0  0  0  0
    0.8075   -2.9802    1.3916 H   0  0  0  0  0  0  0  0  0  0  0  0
    2.3786   -2.5661    0.6593 H   0  0  0  0  0  0  0  0  0  0  0  0
    1.6612   -2.1760    3.6118 H   0  0  0  0  0  0  0  0  0  0  0  0
    2.6764   -3.4749    2.9649 H   0  0  0  0  0  0  0  0  0  0  0  0
    3.2176   -1.7905    2.8679 H   0  0  0  0  0  0  0  0  0  0  0  0
    0.3262   -0.7460   -3.1710 H   0  0  0  0  0  0  0  0  0  0  0  0
    0.2082    0.5788   -1.9561 H   0  0  0  0  0  0  0  0  0  0  0  0
   -2.1490    3.0283   -2.2892 H   0  0  0  0  0  0  0  0  0  0  0  0
   -3.6261    2.1594   -1.7660 H   0  0  0  0  0  0  0  0  0  0  0  0
   -1.6236    3.4341    0.1594 H   0  0  0  0  0  0  0  0  0  0  0  0
   -3.1233    4.2235   -0.3700 H   0  0  0  0  0  0  0  0  0  0  0  0
   -3.1927    2.7278    0.5755 H   0  0  0  0  0  0  0  0  0  0  0  0
   -1.9488    0.5413    2.9676 H   0  0  0  0  0  0  0  0  0  0  0  0
   -3.4160    0.0344    2.0727 H   0  0  0  0  0  0  0  0  0  0  0  0
   -2.4603   -1.8981    3.3089 H   0  0  0  0  0  0  0  0  0  0  0  0
   -2.3547   -2.1480    1.5568 H   0  0  0  0  0  0  0  0  0  0  0  0
   -0.9129   -1.6702    2.4706 H   0  0  0  0  0  0  0  0  0  0  0  0
  1  2  1  0  0  0  0
  2  3  1  0  0  0  0
  3  4  2  0  0  0  0
  4  5  2  0  0  0  0
  4  6  2  0  0  0  0
  6  7  1  0  0  0  0
  7  8  1  0  0  0  0
  4  9  1  0  0  0  0
  9 10  1  0  0  0  0
 10 11  1  0  0  0  0
 11 12  1  0  0  0  0
 12 13  2  0  0  0  0
 12 14  2  0  0  0  0
 14 15  1  0  0  0  0
 15 16  1  0  0  0  0
 12 17  1  0  0  0  0
 17 18  1  0  0  0  0
 18 19  1  0  0  0  0
  1 20  1  0  0  0  0
  1 21  1  0  0  0  0
  1 22  1  0  0  0  0
  2 23  1  0  0  0  0
  2 24  1  0  0  0  0
  7 25  1  0  0  0  0
  7 26  1  0  0  0  0
  8 27  1  0  0  0  0
  8 28  1  0  0  0  0
  8 29  1  0  0  0  0
 10 30  1  0  0  0  0
 10 31  1  0  0  0  0
 15 32  1  0  0  0  0
 15 33  1  0  0  0  0
 16 34  1  0  0  0  0
 16 35  1  0  0  0  0
 16 36  1  0  0  0  0
 18 37  1  0  0  0  0
 18 38  1  0  0  0  0
 19 39  1  0  0  0  0
 19 40  1  0  0  0  0
 19 41  1  0  0  0  0
M  END
