 xtb: 6.7.1 (edcfbbe)
          04092507313D

 38 37  0     0  0            999 V2000
    4.2253   -2.6696    1.3054 C   0  0  0  0  0  0  0  0  0  0  0  0
    4.4062   -2.1729   -0.1198 C   0  0  0  0  0  0  0  0  0  0  0  0
    3.1323   -2.0612   -0.7868 O   0  0  0  0  0  0  0  0  0  0  0  0
    2.4523   -0.9447   -0.6628 C   0  0  0  0  0  0  0  0  0  0  0  0
    2.8415    0.0431   -0.0701 O   0  0  0  0  0  0  0  0  0  0  0  0
    1.1027   -1.0296   -1.3360 C   0  0  0  0  0  0  0  0  0  0  0  0
    0.5097    0.3648   -1.4902 C   0  0  0  0  0  0  0  0  0  0  0  0
    0.9052    0.8850   -2.3634 H   0  0  0  0  0  0  0  0  0  0  0  0
    0.7257    1.2237   -0.2593 C   0  0  0  0  0  0  0  0  0  0  0  0
    0.2734    0.9178    0.8285 O   0  0  0  0  0  0  0  0  0  0  0  0
    1.3113    2.3560   -0.5429 O   0  0  0  0  0  0  0  0  0  0  0  0
    1.4846    3.3170    0.5194 C   0  0  0  0  0  0  0  0  0  0  0  0
    0.2457    4.1881    0.6545 C   0  0  0  0  0  0  0  0  0  0  0  0
   -1.3028    0.3265   -1.7157 S   0  0  0  0  0  0  0  0  0  0  0  0
   -2.0198   -0.2357    0.1899 P   0  0  0  0  0  0  0  0  0  0  0  0
   -1.2587   -1.7412    1.2059 S   0  0  0  0  0  0  0  0  0  0  0  0
   -2.3341    1.1361    0.9353 O   0  0  0  0  0  0  0  0  0  0  0  0
   -2.3172    1.2379    2.3665 C   0  0  0  0  0  0  0  0  0  0  0  0
   -3.5321   -0.5676   -0.2389 O   0  0  0  0  0  0  0  0  0  0  0  0
   -3.8803   -1.7879   -0.8995 C   0  0  0  0  0  0  0  0  0  0  0  0
    3.6447   -1.9514    1.8811 H   0  0  0  0  0  0  0  0  0  0  0  0
    3.7023   -3.6219    1.3068 H   0  0  0  0  0  0  0  0  0  0  0  0
    5.1976   -2.7919    1.7710 H   0  0  0  0  0  0  0  0  0  0  0  0
    4.9661   -2.8875   -0.7229 H   0  0  0  0  0  0  0  0  0  0  0  0
    4.8932   -1.1938   -0.1319 H   0  0  0  0  0  0  0  0  0  0  0  0
    0.4771   -1.6427   -0.6761 H   0  0  0  0  0  0  0  0  0  0  0  0
    1.1817   -1.5401   -2.2940 H   0  0  0  0  0  0  0  0  0  0  0  0
    1.6915    2.7732    1.4449 H   0  0  0  0  0  0  0  0  0  0  0  0
    2.3559    3.8984    0.2191 H   0  0  0  0  0  0  0  0  0  0  0  0
   -0.6189    3.5723    0.8945 H   0  0  0  0  0  0  0  0  0  0  0  0
    0.3984    4.9095    1.4501 H   0  0  0  0  0  0  0  0  0  0  0  0
    0.0542    4.7129   -0.2773 H   0  0  0  0  0  0  0  0  0  0  0  0
   -2.5482    2.2777    2.5837 H   0  0  0  0  0  0  0  0  0  0  0  0
   -1.3272    0.9752    2.7409 H   0  0  0  0  0  0  0  0  0  0  0  0
   -3.0667    0.5782    2.8022 H   0  0  0  0  0  0  0  0  0  0  0  0
   -3.5902   -1.7379   -1.9484 H   0  0  0  0  0  0  0  0  0  0  0  0
   -4.9595   -1.8762   -0.8042 H   0  0  0  0  0  0  0  0  0  0  0  0
   -3.3839   -2.6298   -0.4128 H   0  0  0  0  0  0  0  0  0  0  0  0
  1  2  1  0  0  0  0
  2  3  1  0  0  0  0
  3  4  4  0  0  0  0
  4  5  2  0  0  0  0
  4  6  1  0  0  0  0
  6  7  1  0  0  0  0
  7  8  1  0  0  0  0
  7  9  1  0  0  0  0
  9 10  2  0  0  0  0
  9 11  4  0  0  0  0
 11 12  1  0  0  0  0
 12 13  1  0  0  0  0
  7 14  1  0  0  0  0
 14 15  1  0  0  0  0
 15 16  2  0  0  0  0
 15 17  1  0  0  0  0
 17 18  1  0  0  0  0
 15 19  1  0  0  0  0
 19 20  1  0  0  0  0
  1 21  1  0  0  0  0
  1 22  1  0  0  0  0
  1 23  1  0  0  0  0
  2 24  1  0  0  0  0
  2 25  1  0  0  0  0
  6 26  1  0  0  0  0
  6 27  1  0  0  0  0
 12 28  1  0  0  0  0
 12 29  1  0  0  0  0
 13 30  1  0  0  0  0
 13 31  1  0  0  0  0
 13 32  1  0  0  0  0
 18 33  1  0  0  0  0
 18 34  1  0  0  0  0
 18 35  1  0  0  0  0
 20 36  1  0  0  0  0
 20 37  1  0  0  0  0
 20 38  1  0  0  0  0
M  END
