 xtb: 6.7.1 (edcfbbe)
          04092505213D

 41 40  0     0  0            999 V2000
    4.1120   -1.2700   -2.1575 C   0  0  0  0  0  0  0  0  0  0  0  0
    4.1644    0.2222   -1.9134 C   0  0  0  0  0  0  0  0  0  0  0  0
    3.9901    0.5698   -0.5200 O   0  0  0  0  0  0  0  0  0  0  0  0
    2.8096    0.1253    0.4270 P   0  0  0  0  0  0  0  0  0  0  0  0
    2.6936    1.2896    1.9956 S   0  0  0  0  0  0  0  0  0  0  0  0
    3.1963   -1.3837    0.7530 O   0  0  0  0  0  0  0  0  0  0  0  0
    2.6722   -2.0970    1.8843 C   0  0  0  0  0  0  0  0  0  0  0  0
    1.2037   -2.4319    1.7186 C   0  0  0  0  0  0  0  0  0  0  0  0
    1.0871    0.0616   -0.8479 S   0  0  0  0  0  0  0  0  0  0  0  0
    0.0105    1.2051    0.0550 C   0  0  0  0  0  0  0  0  0  0  0  0
   -1.2815    0.3646    1.0076 S   0  0  0  0  0  0  0  0  0  0  0  0
   -2.6508    0.1750   -0.6180 P   0  0  0  0  0  0  0  0  0  0  0  0
   -1.9418   -0.4130   -2.3421 S   0  0  0  0  0  0  0  0  0  0  0  0
   -3.3116    1.6041   -0.7433 O   0  0  0  0  0  0  0  0  0  0  0  0
   -4.0108    2.2607    0.3471 C   0  0  0  0  0  0  0  0  0  0  0  0
   -3.2240    3.4678    0.8186 C   0  0  0  0  0  0  0  0  0  0  0  0
   -3.8306   -0.6948   -0.0035 O   0  0  0  0  0  0  0  0  0  0  0  0
   -3.8458   -2.1336   -0.0745 C   0  0  0  0  0  0  0  0  0  0  0  0
   -2.6695   -2.7556    0.6487 C   0  0  0  0  0  0  0  0  0  0  0  0
    4.8278   -1.7821   -1.5200 H   0  0  0  0  0  0  0  0  0  0  0  0
    3.1134   -1.6484   -1.9448 H   0  0  0  0  0  0  0  0  0  0  0  0
    4.3477   -1.4684   -3.1986 H   0  0  0  0  0  0  0  0  0  0  0  0
    3.3930    0.7366   -2.4927 H   0  0  0  0  0  0  0  0  0  0  0  0
    5.1448    0.6375   -2.1518 H   0  0  0  0  0  0  0  0  0  0  0  0
    3.2865   -2.9975    1.9308 H   0  0  0  0  0  0  0  0  0  0  0  0
    2.8312   -1.4916    2.7826 H   0  0  0  0  0  0  0  0  0  0  0  0
    1.0340   -2.9187    0.7612 H   0  0  0  0  0  0  0  0  0  0  0  0
    0.8939   -3.0967    2.5183 H   0  0  0  0  0  0  0  0  0  0  0  0
    0.6039   -1.5243    1.7692 H   0  0  0  0  0  0  0  0  0  0  0  0
   -0.4575    1.8588   -0.6786 H   0  0  0  0  0  0  0  0  0  0  0  0
    0.6174    1.7678    0.7684 H   0  0  0  0  0  0  0  0  0  0  0  0
   -4.9732    2.5550   -0.0738 H   0  0  0  0  0  0  0  0  0  0  0  0
   -4.1669    1.5446    1.1561 H   0  0  0  0  0  0  0  0  0  0  0  0
   -3.8150    4.0116    1.5487 H   0  0  0  0  0  0  0  0  0  0  0  0
   -2.2885    3.1621    1.2816 H   0  0  0  0  0  0  0  0  0  0  0  0
   -3.0057    4.1218   -0.0214 H   0  0  0  0  0  0  0  0  0  0  0  0
   -4.7963   -2.4046    0.3872 H   0  0  0  0  0  0  0  0  0  0  0  0
   -3.8455   -2.4239   -1.1292 H   0  0  0  0  0  0  0  0  0  0  0  0
   -2.6116   -2.3870    1.6700 H   0  0  0  0  0  0  0  0  0  0  0  0
   -2.7840   -3.8346    0.6595 H   0  0  0  0  0  0  0  0  0  0  0  0
   -1.7449   -2.5049    0.1300 H   0  0  0  0  0  0  0  0  0  0  0  0
  1  2  1  0  0  0  0
  2  3  1  0  0  0  0
  3  4  2  0  0  0  0
  4  5  2  0  0  0  0
  4  6  2  0  0  0  0
  6  7  1  0  0  0  0
  7  8  1  0  0  0  0
  4  9  1  0  0  0  0
  9 10  1  0  0  0  0
 10 11  1  0  0  0  0
 11 12  1  0  0  0  0
 12 13  2  0  0  0  0
 12 14  2  0  0  0  0
 14 15  1  0  0  0  0
 15 16  1  0  0  0  0
 12 17  2  0  0  0  0
 17 18  1  0  0  0  0
 18 19  1  0  0  0  0
  1 20  1  0  0  0  0
  1 21  1  0  0  0  0
  1 22  1  0  0  0  0
  2 23  1  0  0  0  0
  2 24  1  0  0  0  0
  7 25  1  0  0  0  0
  7 26  1  0  0  0  0
  8 27  1  0  0  0  0
  8 28  1  0  0  0  0
  8 29  1  0  0  0  0
 10 30  1  0  0  0  0
 10 31  1  0  0  0  0
 15 32  1  0  0  0  0
 15 33  1  0  0  0  0
 16 34  1  0  0  0  0
 16 35  1  0  0  0  0
 16 36  1  0  0  0  0
 18 37  1  0  0  0  0
 18 38  1  0  0  0  0
 19 39  1  0  0  0  0
 19 40  1  0  0  0  0
 19 41  1  0  0  0  0
M  END
