 xtb: 6.7.1 (edcfbbe)
          04092505213D

 41 40  0     0  0            999 V2000
    3.8094   -2.1925   -2.5263 C   0  0  0  0  0  0  0  0  0  0  0  0
    4.1035   -1.2979   -1.3390 C   0  0  0  0  0  0  0  0  0  0  0  0
    3.1861   -0.1750   -1.3119 O   0  0  0  0  0  0  0  0  0  0  0  0
    1.9842   -0.0460   -0.2878 P   0  0  0  0  0  0  0  0  0  0  0  0
    1.1598    1.7121   -0.5639 S   0  0  0  0  0  0  0  0  0  0  0  0
    2.5691   -0.3309    1.1742 O   0  0  0  0  0  0  0  0  0  0  0  0
    2.9286    0.7260    2.0812 C   0  0  0  0  0  0  0  0  0  0  0  0
    4.2232    1.3921    1.6622 C   0  0  0  0  0  0  0  0  0  0  0  0
    0.9461   -1.8540   -0.5804 S   0  0  0  0  0  0  0  0  0  0  0  0
   -0.1297   -1.9371    0.8975 C   0  0  0  0  0  0  0  0  0  0  0  0
   -0.5184   -0.3396    1.6567 S   0  0  0  0  0  0  0  0  0  0  0  0
   -1.9820    0.3523    0.2934 P   0  0  0  0  0  0  0  0  0  0  0  0
   -2.4918    2.2278    0.5082 S   0  0  0  0  0  0  0  0  0  0  0  0
   -3.1489   -0.7253    0.4634 O   0  0  0  0  0  0  0  0  0  0  0  0
   -4.0241   -0.7134    1.6073 C   0  0  0  0  0  0  0  0  0  0  0  0
   -5.3104    0.0249    1.2922 C   0  0  0  0  0  0  0  0  0  0  0  0
   -1.4018   -0.1165   -1.1012 O   0  0  0  0  0  0  0  0  0  0  0  0
   -1.7108    0.5787   -2.3246 C   0  0  0  0  0  0  0  0  0  0  0  0
   -3.1536    0.3633   -2.7251 C   0  0  0  0  0  0  0  0  0  0  0  0
    2.8217   -2.6385   -2.4306 H   0  0  0  0  0  0  0  0  0  0  0  0
    3.8450   -1.6129   -3.4445 H   0  0  0  0  0  0  0  0  0  0  0  0
    4.5544   -2.9805   -2.5697 H   0  0  0  0  0  0  0  0  0  0  0  0
    5.0923   -0.8436   -1.4232 H   0  0  0  0  0  0  0  0  0  0  0  0
    4.0265   -1.8458   -0.3970 H   0  0  0  0  0  0  0  0  0  0  0  0
    2.1102    1.4529    2.1140 H   0  0  0  0  0  0  0  0  0  0  0  0
    3.0163    0.2288    3.0480 H   0  0  0  0  0  0  0  0  0  0  0  0
    4.4834    2.1602    2.3836 H   0  0  0  0  0  0  0  0  0  0  0  0
    5.0252    0.6607    1.6072 H   0  0  0  0  0  0  0  0  0  0  0  0
    4.0960    1.8553    0.6836 H   0  0  0  0  0  0  0  0  0  0  0  0
    0.3862   -2.5101    1.6643 H   0  0  0  0  0  0  0  0  0  0  0  0
   -1.0479   -2.4280    0.5808 H   0  0  0  0  0  0  0  0  0  0  0  0
   -4.2143   -1.7660    1.8256 H   0  0  0  0  0  0  0  0  0  0  0  0
   -3.5056   -0.2506    2.4534 H   0  0  0  0  0  0  0  0  0  0  0  0
   -5.7957   -0.4226    0.4295 H   0  0  0  0  0  0  0  0  0  0  0  0
   -5.9744   -0.0309    2.1487 H   0  0  0  0  0  0  0  0  0  0  0  0
   -5.0981    1.0697    1.0755 H   0  0  0  0  0  0  0  0  0  0  0  0
   -1.4908    1.6426   -2.1852 H   0  0  0  0  0  0  0  0  0  0  0  0
   -1.0124    0.1556   -3.0488 H   0  0  0  0  0  0  0  0  0  0  0  0
   -3.3669   -0.6997   -2.7973 H   0  0  0  0  0  0  0  0  0  0  0  0
   -3.8087    0.8079   -1.9764 H   0  0  0  0  0  0  0  0  0  0  0  0
   -3.3357    0.8390   -3.6834 H   0  0  0  0  0  0  0  0  0  0  0  0
  1  2  1  0  0  0  0
  2  3  1  0  0  0  0
  3  4  2  0  0  0  0
  4  5  2  0  0  0  0
  4  6  1  0  0  0  0
  6  7  1  0  0  0  0
  7  8  1  0  0  0  0
  4  9  1  0  0  0  0
  9 10  1  0  0  0  0
 10 11  1  0  0  0  0
 11 12  1  0  0  0  0
 12 13  2  0  0  0  0
 12 14  2  0  0  0  0
 14 15  1  0  0  0  0
 15 16  1  0  0  0  0
 12 17  2  0  0  0  0
 17 18  1  0  0  0  0
 18 19  1  0  0  0  0
  1 20  1  0  0  0  0
  1 21  1  0  0  0  0
  1 22  1  0  0  0  0
  2 23  1  0  0  0  0
  2 24  1  0  0  0  0
  7 25  1  0  0  0  0
  7 26  1  0  0  0  0
  8 27  1  0  0  0  0
  8 28  1  0  0  0  0
  8 29  1  0  0  0  0
 10 30  1  0  0  0  0
 10 31  1  0  0  0  0
 15 32  1  0  0  0  0
 15 33  1  0  0  0  0
 16 34  1  0  0  0  0
 16 35  1  0  0  0  0
 16 36  1  0  0  0  0
 18 37  1  0  0  0  0
 18 38  1  0  0  0  0
 19 39  1  0  0  0  0
 19 40  1  0  0  0  0
 19 41  1  0  0  0  0
M  END
