 xtb: 6.7.1 (edcfbbe)
          04092507313D

 38 37  0     0  0            999 V2000
    5.2365   -3.2593   -1.7057 C   0  0  0  0  0  0  0  0  0  0  0  0
    4.1491   -2.7638   -0.7719 C   0  0  0  0  0  0  0  0  0  0  0  0
    3.1211   -2.1401   -1.5691 O   0  0  0  0  0  0  0  0  0  0  0  0
    2.3428   -1.2461   -1.0066 C   0  0  0  0  0  0  0  0  0  0  0  0
    2.4112   -0.9074    0.1583 O   0  0  0  0  0  0  0  0  0  0  0  0
    1.3516   -0.6581   -1.9884 C   0  0  0  0  0  0  0  0  0  0  0  0
    0.3071    0.1539   -1.2335 C   0  0  0  0  0  0  0  0  0  0  0  0
   -0.2947    0.7485   -1.9288 H   0  0  0  0  0  0  0  0  0  0  0  0
    0.9998    1.1237   -0.2912 C   0  0  0  0  0  0  0  0  0  0  0  0
    1.9051    1.8347   -0.6696 O   0  0  0  0  0  0  0  0  0  0  0  0
    0.4797    1.1575    0.9174 O   0  0  0  0  0  0  0  0  0  0  0  0
    1.0918    2.0637    1.8589 C   0  0  0  0  0  0  0  0  0  0  0  0
    0.6655    1.6860    3.2622 C   0  0  0  0  0  0  0  0  0  0  0  0
   -0.8261   -0.9608   -0.3446 S   0  0  0  0  0  0  0  0  0  0  0  0
   -2.2144    0.4951    0.3428 P   0  0  0  0  0  0  0  0  0  0  0  0
   -2.1908    2.2390   -0.5481 S   0  0  0  0  0  0  0  0  0  0  0  0
   -3.6065   -0.2863    0.1947 O   0  0  0  0  0  0  0  0  0  0  0  0
   -4.1572   -0.5782   -1.0942 C   0  0  0  0  0  0  0  0  0  0  0  0
   -2.1228    0.5840    1.9155 O   0  0  0  0  0  0  0  0  0  0  0  0
   -2.1779   -0.5966    2.7420 C   0  0  0  0  0  0  0  0  0  0  0  0
    4.8169   -3.9562   -2.4245 H   0  0  0  0  0  0  0  0  0  0  0  0
    5.6797   -2.4256   -2.2425 H   0  0  0  0  0  0  0  0  0  0  0  0
    6.0051   -3.7596   -1.1261 H   0  0  0  0  0  0  0  0  0  0  0  0
    4.5257   -2.0289   -0.0538 H   0  0  0  0  0  0  0  0  0  0  0  0
    3.6876   -3.5886   -0.2214 H   0  0  0  0  0  0  0  0  0  0  0  0
    0.8925   -1.4546   -2.5728 H   0  0  0  0  0  0  0  0  0  0  0  0
    1.9037    0.0022   -2.6611 H   0  0  0  0  0  0  0  0  0  0  0  0
    2.1755    1.9886    1.7254 H   0  0  0  0  0  0  0  0  0  0  0  0
    0.7737    3.0776    1.5951 H   0  0  0  0  0  0  0  0  0  0  0  0
    0.9426    0.6562    3.4685 H   0  0  0  0  0  0  0  0  0  0  0  0
    1.1648    2.3412    3.9684 H   0  0  0  0  0  0  0  0  0  0  0  0
   -0.4094    1.7985    3.3655 H   0  0  0  0  0  0  0  0  0  0  0  0
   -4.1766    0.3248   -1.7065 H   0  0  0  0  0  0  0  0  0  0  0  0
   -5.1679   -0.9316   -0.9071 H   0  0  0  0  0  0  0  0  0  0  0  0
   -3.5631   -1.3497   -1.5839 H   0  0  0  0  0  0  0  0  0  0  0  0
   -1.3391   -1.2511    2.5057 H   0  0  0  0  0  0  0  0  0  0  0  0
   -3.1183   -1.1198    2.5814 H   0  0  0  0  0  0  0  0  0  0  0  0
   -2.1068   -0.2351    3.7644 H   0  0  0  0  0  0  0  0  0  0  0  0
  1  2  1  0  0  0  0
  2  3  1  0  0  0  0
  3  4  4  0  0  0  0
  4  5  2  0  0  0  0
  4  6  1  0  0  0  0
  6  7  1  0  0  0  0
  7  8  1  0  0  0  0
  7  9  1  0  0  0  0
  9 10  2  0  0  0  0
  9 11  1  0  0  0  0
 11 12  1  0  0  0  0
 12 13  1  0  0  0  0
  7 14  1  0  0  0  0
 14 15  1  0  0  0  0
 15 16  2  0  0  0  0
 15 17  1  0  0  0  0
 17 18  1  0  0  0  0
 15 19  2  0  0  0  0
 19 20  1  0  0  0  0
  1 21  1  0  0  0  0
  1 22  1  0  0  0  0
  1 23  1  0  0  0  0
  2 24  1  0  0  0  0
  2 25  1  0  0  0  0
  6 26  1  0  0  0  0
  6 27  1  0  0  0  0
 12 28  1  0  0  0  0
 12 29  1  0  0  0  0
 13 30  1  0  0  0  0
 13 31  1  0  0  0  0
 13 32  1  0  0  0  0
 18 33  1  0  0  0  0
 18 34  1  0  0  0  0
 18 35  1  0  0  0  0
 20 36  1  0  0  0  0
 20 37  1  0  0  0  0
 20 38  1  0  0  0  0
M  END
