 xtb: 6.7.1 (edcfbbe)
          04092505213D

 41 40  0     0  0            999 V2000
    4.4724   -0.3615   -2.1933 C   0  0  0  0  0  0  0  0  0  0  0  0
    2.9794   -0.4472   -1.9524 C   0  0  0  0  0  0  0  0  0  0  0  0
    2.5675    0.4606   -0.9023 O   0  0  0  0  0  0  0  0  0  0  0  0
    2.4612    0.0871    0.6245 P   0  0  0  0  0  0  0  0  0  0  0  0
    1.7844    1.5831    1.6828 S   0  0  0  0  0  0  0  0  0  0  0  0
    3.9305   -0.4028    0.9804 O   0  0  0  0  0  0  0  0  0  0  0  0
    4.4139   -0.4959    2.3334 C   0  0  0  0  0  0  0  0  0  0  0  0
    3.7035   -1.5720    3.1285 C   0  0  0  0  0  0  0  0  0  0  0  0
    1.2920   -1.6989    0.6957 S   0  0  0  0  0  0  0  0  0  0  0  0
   -0.3035   -0.8734    0.6950 C   0  0  0  0  0  0  0  0  0  0  0  0
   -0.6459   -0.1592   -0.9591 S   0  0  0  0  0  0  0  0  0  0  0  0
   -2.6976    0.2743   -0.6242 P   0  0  0  0  0  0  0  0  0  0  0  0
   -3.5889    1.2081   -2.0957 S   0  0  0  0  0  0  0  0  0  0  0  0
   -2.7664    0.9658    0.8001 O   0  0  0  0  0  0  0  0  0  0  0  0
   -2.8688    2.3945    0.9313 C   0  0  0  0  0  0  0  0  0  0  0  0
   -1.5830    3.0947    0.5389 C   0  0  0  0  0  0  0  0  0  0  0  0
   -3.2930   -1.1232   -0.1566 O   0  0  0  0  0  0  0  0  0  0  0  0
   -3.4319   -2.2165   -1.0888 C   0  0  0  0  0  0  0  0  0  0  0  0
   -4.8190   -2.2348   -1.7002 C   0  0  0  0  0  0  0  0  0  0  0  0
    4.7293   -0.9871   -3.0425 H   0  0  0  0  0  0  0  0  0  0  0  0
    4.7568    0.6655   -2.4062 H   0  0  0  0  0  0  0  0  0  0  0  0
    5.0174   -0.7030   -1.3176 H   0  0  0  0  0  0  0  0  0  0  0  0
    2.6795   -1.4631   -1.6802 H   0  0  0  0  0  0  0  0  0  0  0  0
    2.4107   -0.1188   -2.8244 H   0  0  0  0  0  0  0  0  0  0  0  0
    5.4753   -0.7184    2.2143 H   0  0  0  0  0  0  0  0  0  0  0  0
    4.2915    0.4812    2.8109 H   0  0  0  0  0  0  0  0  0  0  0  0
    3.7170   -2.5143    2.5867 H   0  0  0  0  0  0  0  0  0  0  0  0
    4.2033   -1.6976    4.0837 H   0  0  0  0  0  0  0  0  0  0  0  0
    2.6691   -1.2844    3.3083 H   0  0  0  0  0  0  0  0  0  0  0  0
   -0.2882   -0.0677    1.4310 H   0  0  0  0  0  0  0  0  0  0  0  0
   -1.0598   -1.6168    0.9335 H   0  0  0  0  0  0  0  0  0  0  0  0
   -3.6974    2.7434    0.3068 H   0  0  0  0  0  0  0  0  0  0  0  0
   -3.1054    2.5473    1.9850 H   0  0  0  0  0  0  0  0  0  0  0  0
   -1.3696    2.9154   -0.5153 H   0  0  0  0  0  0  0  0  0  0  0  0
   -1.6918    4.1629    0.6961 H   0  0  0  0  0  0  0  0  0  0  0  0
   -0.7443    2.7356    1.1323 H   0  0  0  0  0  0  0  0  0  0  0  0
   -2.6633   -2.1319   -1.8649 H   0  0  0  0  0  0  0  0  0  0  0  0
   -3.2527   -3.1142   -0.4932 H   0  0  0  0  0  0  0  0  0  0  0  0
   -4.9841   -1.3343   -2.2877 H   0  0  0  0  0  0  0  0  0  0  0  0
   -4.9146   -3.1021   -2.3454 H   0  0  0  0  0  0  0  0  0  0  0  0
   -5.5700   -2.2825   -0.9168 H   0  0  0  0  0  0  0  0  0  0  0  0
  1  2  1  0  0  0  0
  2  3  1  0  0  0  0
  3  4  2  0  0  0  0
  4  5  2  0  0  0  0
  4  6  2  0  0  0  0
  6  7  1  0  0  0  0
  7  8  1  0  0  0  0
  4  9  1  0  0  0  0
  9 10  1  0  0  0  0
 10 11  1  0  0  0  0
 11 12  1  0  0  0  0
 12 13  2  0  0  0  0
 12 14  2  0  0  0  0
 14 15  1  0  0  0  0
 15 16  1  0  0  0  0
 12 17  2  0  0  0  0
 17 18  1  0  0  0  0
 18 19  1  0  0  0  0
  1 20  1  0  0  0  0
  1 21  1  0  0  0  0
  1 22  1  0  0  0  0
  2 23  1  0  0  0  0
  2 24  1  0  0  0  0
  7 25  1  0  0  0  0
  7 26  1  0  0  0  0
  8 27  1  0  0  0  0
  8 28  1  0  0  0  0
  8 29  1  0  0  0  0
 10 30  1  0  0  0  0
 10 31  1  0  0  0  0
 15 32  1  0  0  0  0
 15 33  1  0  0  0  0
 16 34  1  0  0  0  0
 16 35  1  0  0  0  0
 16 36  1  0  0  0  0
 18 37  1  0  0  0  0
 18 38  1  0  0  0  0
 19 39  1  0  0  0  0
 19 40  1  0  0  0  0
 19 41  1  0  0  0  0
M  END
