 xtb: 6.7.1 (edcfbbe)
          04092505213D

 41 40  0     0  0            999 V2000
    2.7028    3.0224   -0.0539 C   0  0  0  0  0  0  0  0  0  0  0  0
    3.0385    1.6171   -0.5154 C   0  0  0  0  0  0  0  0  0  0  0  0
    3.1602    0.7198    0.6023 O   0  0  0  0  0  0  0  0  0  0  0  0
    1.9473   -0.1144    1.1982 P   0  0  0  0  0  0  0  0  0  0  0  0
    0.4535    0.8883    1.9689 S   0  0  0  0  0  0  0  0  0  0  0  0
    2.6364   -0.9597    2.3349 O   0  0  0  0  0  0  0  0  0  0  0  0
    3.5443   -2.0757    2.1669 C   0  0  0  0  0  0  0  0  0  0  0  0
    4.7569   -1.7400    1.3262 C   0  0  0  0  0  0  0  0  0  0  0  0
    1.4726   -1.4723   -0.3808 S   0  0  0  0  0  0  0  0  0  0  0  0
   -0.2207   -1.9012    0.1216 C   0  0  0  0  0  0  0  0  0  0  0  0
   -1.3812   -1.9053   -1.2763 S   0  0  0  0  0  0  0  0  0  0  0  0
   -2.0825    0.0799   -1.1776 P   0  0  0  0  0  0  0  0  0  0  0  0
   -3.4877    0.5716   -2.4481 S   0  0  0  0  0  0  0  0  0  0  0  0
   -0.7038    0.8572   -1.3261 O   0  0  0  0  0  0  0  0  0  0  0  0
   -0.6906    2.2462   -1.7212 C   0  0  0  0  0  0  0  0  0  0  0  0
   -1.2987    3.1440   -0.6648 C   0  0  0  0  0  0  0  0  0  0  0  0
   -2.4443    0.3273    0.3552 O   0  0  0  0  0  0  0  0  0  0  0  0
   -3.7746    0.1427    0.8609 C   0  0  0  0  0  0  0  0  0  0  0  0
   -4.1521   -1.3233    0.9395 C   0  0  0  0  0  0  0  0  0  0  0  0
    2.6738    3.6885   -0.9105 H   0  0  0  0  0  0  0  0  0  0  0  0
    1.7362    3.0371    0.4444 H   0  0  0  0  0  0  0  0  0  0  0  0
    3.4569    3.3722    0.6457 H   0  0  0  0  0  0  0  0  0  0  0  0
    4.0169    1.5842   -0.9993 H   0  0  0  0  0  0  0  0  0  0  0  0
    2.2819    1.2293   -1.2038 H   0  0  0  0  0  0  0  0  0  0  0  0
    3.8219   -2.3221    3.1930 H   0  0  0  0  0  0  0  0  0  0  0  0
    2.9860   -2.9044    1.7242 H   0  0  0  0  0  0  0  0  0  0  0  0
    4.4656   -1.5720    0.2916 H   0  0  0  0  0  0  0  0  0  0  0  0
    5.2441   -0.8464    1.7070 H   0  0  0  0  0  0  0  0  0  0  0  0
    5.4528   -2.5725    1.3650 H   0  0  0  0  0  0  0  0  0  0  0  0
   -0.5527   -1.1762    0.8694 H   0  0  0  0  0  0  0  0  0  0  0  0
   -0.2228   -2.9163    0.5091 H   0  0  0  0  0  0  0  0  0  0  0  0
    0.3655    2.4662   -1.8801 H   0  0  0  0  0  0  0  0  0  0  0  0
   -1.2356    2.3369   -2.6664 H   0  0  0  0  0  0  0  0  0  0  0  0
   -0.8661    2.9250    0.3093 H   0  0  0  0  0  0  0  0  0  0  0  0
   -1.1132    4.1819   -0.9218 H   0  0  0  0  0  0  0  0  0  0  0  0
   -2.3737    2.9780   -0.6103 H   0  0  0  0  0  0  0  0  0  0  0  0
   -3.7480    0.6088    1.8470 H   0  0  0  0  0  0  0  0  0  0  0  0
   -4.4701    0.6824    0.2097 H   0  0  0  0  0  0  0  0  0  0  0  0
   -3.4332   -1.8696    1.5450 H   0  0  0  0  0  0  0  0  0  0  0  0
   -5.1378   -1.4156    1.3843 H   0  0  0  0  0  0  0  0  0  0  0  0
   -4.1741   -1.7550   -0.0610 H   0  0  0  0  0  0  0  0  0  0  0  0
  1  2  1  0  0  0  0
  2  3  1  0  0  0  0
  3  4  2  0  0  0  0
  4  5  2  0  0  0  0
  4  6  2  0  0  0  0
  6  7  1  0  0  0  0
  7  8  1  0  0  0  0
  4  9  1  0  0  0  0
  9 10  1  0  0  0  0
 10 11  1  0  0  0  0
 11 12  1  0  0  0  0
 12 13  2  0  0  0  0
 12 14  2  0  0  0  0
 14 15  1  0  0  0  0
 15 16  1  0  0  0  0
 12 17  2  0  0  0  0
 17 18  1  0  0  0  0
 18 19  1  0  0  0  0
  1 20  1  0  0  0  0
  1 21  1  0  0  0  0
  1 22  1  0  0  0  0
  2 23  1  0  0  0  0
  2 24  1  0  0  0  0
  7 25  1  0  0  0  0
  7 26  1  0  0  0  0
  8 27  1  0  0  0  0
  8 28  1  0  0  0  0
  8 29  1  0  0  0  0
 10 30  1  0  0  0  0
 10 31  1  0  0  0  0
 15 32  1  0  0  0  0
 15 33  1  0  0  0  0
 16 34  1  0  0  0  0
 16 35  1  0  0  0  0
 16 36  1  0  0  0  0
 18 37  1  0  0  0  0
 18 38  1  0  0  0  0
 19 39  1  0  0  0  0
 19 40  1  0  0  0  0
 19 41  1  0  0  0  0
M  END
