 xtb: 6.7.1 (edcfbbe)
          04092507313D

 38 37  0     0  0            999 V2000
    4.0395   -0.1728   -2.8872 C   0  0  0  0  0  0  0  0  0  0  0  0
    4.1525   -1.5424   -2.2375 C   0  0  0  0  0  0  0  0  0  0  0  0
    2.8798   -1.9291   -1.6837 O   0  0  0  0  0  0  0  0  0  0  0  0
    2.6911   -1.8365   -0.3852 C   0  0  0  0  0  0  0  0  0  0  0  0
    3.5359   -1.5280    0.4260 O   0  0  0  0  0  0  0  0  0  0  0  0
    1.2565   -2.1757   -0.0131 C   0  0  0  0  0  0  0  0  0  0  0  0
    0.3547   -0.9969   -0.4031 C   0  0  0  0  0  0  0  0  0  0  0  0
    0.3134   -0.8945   -1.4902 H   0  0  0  0  0  0  0  0  0  0  0  0
    0.9637    0.2673    0.1724 C   0  0  0  0  0  0  0  0  0  0  0  0
    1.8784    0.8376   -0.3788 O   0  0  0  0  0  0  0  0  0  0  0  0
    0.4776    0.5947    1.3501 O   0  0  0  0  0  0  0  0  0  0  0  0
    1.0932    1.7179    2.0133 C   0  0  0  0  0  0  0  0  0  0  0  0
    0.4861    1.8571    3.3935 C   0  0  0  0  0  0  0  0  0  0  0  0
   -1.3221   -1.3158    0.2330 S   0  0  0  0  0  0  0  0  0  0  0  0
   -2.1280    0.6434    0.0879 P   0  0  0  0  0  0  0  0  0  0  0  0
   -1.2134    1.8801   -1.1280 S   0  0  0  0  0  0  0  0  0  0  0  0
   -3.6532    0.3498   -0.2945 O   0  0  0  0  0  0  0  0  0  0  0  0
   -4.0130   -0.1607   -1.5834 C   0  0  0  0  0  0  0  0  0  0  0  0
   -2.3086    1.2147    1.5467 O   0  0  0  0  0  0  0  0  0  0  0  0
   -3.0157    0.4717    2.5638 C   0  0  0  0  0  0  0  0  0  0  0  0
    5.0111    0.1320   -3.2610 H   0  0  0  0  0  0  0  0  0  0  0  0
    3.3300   -0.2029   -3.7091 H   0  0  0  0  0  0  0  0  0  0  0  0
    3.6913    0.5549   -2.1563 H   0  0  0  0  0  0  0  0  0  0  0  0
    4.8925   -1.5360   -1.4325 H   0  0  0  0  0  0  0  0  0  0  0  0
    4.3934   -2.3138   -2.9704 H   0  0  0  0  0  0  0  0  0  0  0  0
    1.2034   -2.3436    1.0630 H   0  0  0  0  0  0  0  0  0  0  0  0
    0.9355   -3.0667   -0.5511 H   0  0  0  0  0  0  0  0  0  0  0  0
    2.1706    1.5271    2.0508 H   0  0  0  0  0  0  0  0  0  0  0  0
    0.9204    2.6066    1.3969 H   0  0  0  0  0  0  0  0  0  0  0  0
   -0.5696    2.0950    3.3093 H   0  0  0  0  0  0  0  0  0  0  0  0
    0.6044    0.9310    3.9478 H   0  0  0  0  0  0  0  0  0  0  0  0
    0.9925    2.6587    3.9207 H   0  0  0  0  0  0  0  0  0  0  0  0
   -3.7170   -1.2066   -1.6624 H   0  0  0  0  0  0  0  0  0  0  0  0
   -3.5313    0.4255   -2.3675 H   0  0  0  0  0  0  0  0  0  0  0  0
   -5.0936   -0.0616   -1.6457 H   0  0  0  0  0  0  0  0  0  0  0  0
   -2.9775    1.0945    3.4535 H   0  0  0  0  0  0  0  0  0  0  0  0
   -2.5172   -0.4817    2.7369 H   0  0  0  0  0  0  0  0  0  0  0  0
   -4.0450    0.3064    2.2534 H   0  0  0  0  0  0  0  0  0  0  0  0
  1  2  1  0  0  0  0
  2  3  1  0  0  0  0
  3  4  1  0  0  0  0
  4  5  2  0  0  0  0
  4  6  1  0  0  0  0
  6  7  1  0  0  0  0
  7  8  1  0  0  0  0
  7  9  1  0  0  0  0
  9 10  2  0  0  0  0
  9 11  1  0  0  0  0
 11 12  1  0  0  0  0
 12 13  1  0  0  0  0
  7 14  1  0  0  0  0
 14 15  1  0  0  0  0
 15 16  2  0  0  0  0
 15 17  1  0  0  0  0
 17 18  1  0  0  0  0
 15 19  2  0  0  0  0
 19 20  1  0  0  0  0
  1 21  1  0  0  0  0
  1 22  1  0  0  0  0
  1 23  1  0  0  0  0
  2 24  1  0  0  0  0
  2 25  1  0  0  0  0
  6 26  1  0  0  0  0
  6 27  1  0  0  0  0
 12 28  1  0  0  0  0
 12 29  1  0  0  0  0
 13 30  1  0  0  0  0
 13 31  1  0  0  0  0
 13 32  1  0  0  0  0
 18 33  1  0  0  0  0
 18 34  1  0  0  0  0
 18 35  1  0  0  0  0
 20 36  1  0  0  0  0
 20 37  1  0  0  0  0
 20 38  1  0  0  0  0
M  END
