 xtb: 6.7.1 (edcfbbe)
          04092507313D

 38 37  0     0  0            999 V2000
    4.0326   -2.5399    1.3888 C   0  0  0  0  0  0  0  0  0  0  0  0
    2.6600   -1.8982    1.3566 C   0  0  0  0  0  0  0  0  0  0  0  0
    2.4442   -1.3736    0.0310 O   0  0  0  0  0  0  0  0  0  0  0  0
    1.5263   -0.4672   -0.1509 C   0  0  0  0  0  0  0  0  0  0  0  0
    0.8385    0.0190    0.7361 O   0  0  0  0  0  0  0  0  0  0  0  0
    1.4066   -0.0250   -1.5891 C   0  0  0  0  0  0  0  0  0  0  0  0
    0.2971    1.0104   -1.6983 C   0  0  0  0  0  0  0  0  0  0  0  0
    0.3545    1.5356   -2.6555 H   0  0  0  0  0  0  0  0  0  0  0  0
    0.3668    2.0400   -0.5769 C   0  0  0  0  0  0  0  0  0  0  0  0
   -0.5950    2.4641    0.0211 O   0  0  0  0  0  0  0  0  0  0  0  0
    1.6026    2.4707   -0.4169 O   0  0  0  0  0  0  0  0  0  0  0  0
    1.8400    3.4743    0.5907 C   0  0  0  0  0  0  0  0  0  0  0  0
    3.1790    4.1247    0.3033 C   0  0  0  0  0  0  0  0  0  0  0  0
   -1.3789    0.2899   -1.7424 S   0  0  0  0  0  0  0  0  0  0  0  0
   -1.7630   -0.7779    0.0400 P   0  0  0  0  0  0  0  0  0  0  0  0
   -0.8318   -2.4666    0.4371 S   0  0  0  0  0  0  0  0  0  0  0  0
   -1.9915    0.2449    1.2241 O   0  0  0  0  0  0  0  0  0  0  0  0
   -1.4052    0.1659    2.5218 C   0  0  0  0  0  0  0  0  0  0  0  0
   -3.3131   -1.0582   -0.2484 O   0  0  0  0  0  0  0  0  0  0  0  0
   -3.7361   -2.0082   -1.2318 C   0  0  0  0  0  0  0  0  0  0  0  0
    4.7996   -1.7996    1.1814 H   0  0  0  0  0  0  0  0  0  0  0  0
    4.2025   -2.9675    2.3711 H   0  0  0  0  0  0  0  0  0  0  0  0
    4.0882   -3.3253    0.6417 H   0  0  0  0  0  0  0  0  0  0  0  0
    2.5697   -1.0771    2.0745 H   0  0  0  0  0  0  0  0  0  0  0  0
    1.8666   -2.6258    1.5551 H   0  0  0  0  0  0  0  0  0  0  0  0
    1.2016   -0.8910   -2.2201 H   0  0  0  0  0  0  0  0  0  0  0  0
    2.3608    0.4070   -1.8957 H   0  0  0  0  0  0  0  0  0  0  0  0
    1.0165    4.1945    0.5615 H   0  0  0  0  0  0  0  0  0  0  0  0
    1.8303    2.9767    1.5659 H   0  0  0  0  0  0  0  0  0  0  0  0
    3.9687    3.3801    0.3273 H   0  0  0  0  0  0  0  0  0  0  0  0
    3.1641    4.5918   -0.6768 H   0  0  0  0  0  0  0  0  0  0  0  0
    3.3759    4.8799    1.0567 H   0  0  0  0  0  0  0  0  0  0  0  0
   -2.2129    0.3066    3.2369 H   0  0  0  0  0  0  0  0  0  0  0  0
   -0.6642    0.9587    2.6109 H   0  0  0  0  0  0  0  0  0  0  0  0
   -0.9276   -0.8050    2.6687 H   0  0  0  0  0  0  0  0  0  0  0  0
   -3.6150   -1.5914   -2.2312 H   0  0  0  0  0  0  0  0  0  0  0  0
   -4.7851   -2.1994   -1.0202 H   0  0  0  0  0  0  0  0  0  0  0  0
   -3.1552   -2.9279   -1.1368 H   0  0  0  0  0  0  0  0  0  0  0  0
  1  2  1  0  0  0  0
  2  3  1  0  0  0  0
  3  4  4  0  0  0  0
  4  5  2  0  0  0  0
  4  6  1  0  0  0  0
  6  7  1  0  0  0  0
  7  8  1  0  0  0  0
  7  9  1  0  0  0  0
  9 10  2  0  0  0  0
  9 11  1  0  0  0  0
 11 12  1  0  0  0  0
 12 13  1  0  0  0  0
  7 14  1  0  0  0  0
 14 15  1  0  0  0  0
 15 16  2  0  0  0  0
 15 17  2  0  0  0  0
 17 18  1  0  0  0  0
 15 19  1  0  0  0  0
 19 20  1  0  0  0  0
  1 21  1  0  0  0  0
  1 22  1  0  0  0  0
  1 23  1  0  0  0  0
  2 24  1  0  0  0  0
  2 25  1  0  0  0  0
  6 26  1  0  0  0  0
  6 27  1  0  0  0  0
 12 28  1  0  0  0  0
 12 29  1  0  0  0  0
 13 30  1  0  0  0  0
 13 31  1  0  0  0  0
 13 32  1  0  0  0  0
 18 33  1  0  0  0  0
 18 34  1  0  0  0  0
 18 35  1  0  0  0  0
 20 36  1  0  0  0  0
 20 37  1  0  0  0  0
 20 38  1  0  0  0  0
M  END
