 xtb: 6.7.1 (edcfbbe)
          04092505203D

 41 40  0     0  0            999 V2000
    3.1949   -0.0161   -2.7871 C   0  0  0  0  0  0  0  0  0  0  0  0
    1.8085    0.3831   -2.3294 C   0  0  0  0  0  0  0  0  0  0  0  0
    1.3180   -0.4666   -1.2772 O   0  0  0  0  0  0  0  0  0  0  0  0
    1.9633   -0.4924    0.1707 P   0  0  0  0  0  0  0  0  0  0  0  0
    2.6222    1.2047    0.9089 S   0  0  0  0  0  0  0  0  0  0  0  0
    3.0846   -1.6065   -0.0159 O   0  0  0  0  0  0  0  0  0  0  0  0
    4.1649   -1.7827    0.9159 C   0  0  0  0  0  0  0  0  0  0  0  0
    3.6912   -2.3265    2.2484 C   0  0  0  0  0  0  0  0  0  0  0  0
    0.4729   -1.5177    1.2331 S   0  0  0  0  0  0  0  0  0  0  0  0
   -0.4437   -0.1284    1.9864 C   0  0  0  0  0  0  0  0  0  0  0  0
   -2.1782   -0.0889    1.4968 S   0  0  0  0  0  0  0  0  0  0  0  0
   -1.9343    0.7675   -0.4346 P   0  0  0  0  0  0  0  0  0  0  0  0
   -0.5769    2.1752   -0.5522 S   0  0  0  0  0  0  0  0  0  0  0  0
   -3.4247    1.1359   -0.8422 O   0  0  0  0  0  0  0  0  0  0  0  0
   -4.3672    1.8387   -0.0095 C   0  0  0  0  0  0  0  0  0  0  0  0
   -3.8436    3.1762    0.4685 C   0  0  0  0  0  0  0  0  0  0  0  0
   -1.6044   -0.3666   -1.4788 O   0  0  0  0  0  0  0  0  0  0  0  0
   -2.4574   -1.5038   -1.7713 C   0  0  0  0  0  0  0  0  0  0  0  0
   -1.9695   -2.7478   -1.0561 C   0  0  0  0  0  0  0  0  0  0  0  0
    3.9155    0.1703   -1.9918 H   0  0  0  0  0  0  0  0  0  0  0  0
    3.2154   -1.0722   -3.0431 H   0  0  0  0  0  0  0  0  0  0  0  0
    3.4678    0.5753   -3.6555 H   0  0  0  0  0  0  0  0  0  0  0  0
    1.0654    0.2688   -3.1206 H   0  0  0  0  0  0  0  0  0  0  0  0
    1.7956    1.4186   -1.9718 H   0  0  0  0  0  0  0  0  0  0  0  0
    4.8340   -2.4804    0.4104 H   0  0  0  0  0  0  0  0  0  0  0  0
    4.6637   -0.8175    1.0519 H   0  0  0  0  0  0  0  0  0  0  0  0
    3.0878   -1.5789    2.7612 H   0  0  0  0  0  0  0  0  0  0  0  0
    3.0918   -3.2212    2.1004 H   0  0  0  0  0  0  0  0  0  0  0  0
    4.5526   -2.5651    2.8638 H   0  0  0  0  0  0  0  0  0  0  0  0
    0.0424    0.8100    1.7045 H   0  0  0  0  0  0  0  0  0  0  0  0
   -0.4368   -0.2684    3.0640 H   0  0  0  0  0  0  0  0  0  0  0  0
   -5.2373    1.9599   -0.6572 H   0  0  0  0  0  0  0  0  0  0  0  0
   -4.6186    1.1960    0.8385 H   0  0  0  0  0  0  0  0  0  0  0  0
   -4.6223    3.6920    1.0210 H   0  0  0  0  0  0  0  0  0  0  0  0
   -2.9820    3.0333    1.1192 H   0  0  0  0  0  0  0  0  0  0  0  0
   -3.5349    3.7876   -0.3763 H   0  0  0  0  0  0  0  0  0  0  0  0
   -3.4846   -1.2589   -1.4962 H   0  0  0  0  0  0  0  0  0  0  0  0
   -2.3851   -1.6173   -2.8543 H   0  0  0  0  0  0  0  0  0  0  0  0
   -0.9158   -2.9111   -1.2693 H   0  0  0  0  0  0  0  0  0  0  0  0
   -2.0938   -2.6545    0.0202 H   0  0  0  0  0  0  0  0  0  0  0  0
   -2.5414   -3.6014   -1.4057 H   0  0  0  0  0  0  0  0  0  0  0  0
  1  2  1  0  0  0  0
  2  3  1  0  0  0  0
  3  4  2  0  0  0  0
  4  5  2  0  0  0  0
  4  6  2  0  0  0  0
  6  7  1  0  0  0  0
  7  8  1  0  0  0  0
  4  9  1  0  0  0  0
  9 10  1  0  0  0  0
 10 11  1  0  0  0  0
 11 12  1  0  0  0  0
 12 13  2  0  0  0  0
 12 14  2  0  0  0  0
 14 15  1  0  0  0  0
 15 16  1  0  0  0  0
 12 17  2  0  0  0  0
 17 18  1  0  0  0  0
 18 19  1  0  0  0  0
  1 20  1  0  0  0  0
  1 21  1  0  0  0  0
  1 22  1  0  0  0  0
  2 23  1  0  0  0  0
  2 24  1  0  0  0  0
  7 25  1  0  0  0  0
  7 26  1  0  0  0  0
  8 27  1  0  0  0  0
  8 28  1  0  0  0  0
  8 29  1  0  0  0  0
 10 30  1  0  0  0  0
 10 31  1  0  0  0  0
 15 32  1  0  0  0  0
 15 33  1  0  0  0  0
 16 34  1  0  0  0  0
 16 35  1  0  0  0  0
 16 36  1  0  0  0  0
 18 37  1  0  0  0  0
 18 38  1  0  0  0  0
 19 39  1  0  0  0  0
 19 40  1  0  0  0  0
 19 41  1  0  0  0  0
M  END
