 xtb: 6.7.1 (edcfbbe)
          04032520413D

 22 24  0     0  0            999 V2000
    3.3417    1.4378   -0.0002 C   0  0  0  0  0  0  0  0  0  0  0  0
    2.0204    1.8559    0.0014 C   0  0  0  0  0  0  0  0  0  0  0  0
    0.9922    0.9292    0.0024 C   0  0  0  0  0  0  0  0  0  0  0  0
    1.2862   -0.4360    0.0020 C   0  0  0  0  0  0  0  0  0  0  0  0
    2.6036   -0.8614    0.0002 C   0  0  0  0  0  0  0  0  0  0  0  0
    3.6192    0.0833   -0.0009 C   0  0  0  0  0  0  0  0  0  0  0  0
    5.2660   -0.4592   -0.0033 Cl  0  0  0  0  0  0  0  0  0  0  0  0
    0.3035   -1.3955    0.0035 O   0  0  0  0  0  0  0  0  0  0  0  0
   -0.9922   -0.9292    0.0024 C   0  0  0  0  0  0  0  0  0  0  0  0
   -2.0204   -1.8560    0.0014 C   0  0  0  0  0  0  0  0  0  0  0  0
   -3.3417   -1.4378   -0.0002 C   0  0  0  0  0  0  0  0  0  0  0  0
   -3.6192   -0.0832   -0.0009 C   0  0  0  0  0  0  0  0  0  0  0  0
   -2.6036    0.8613    0.0003 C   0  0  0  0  0  0  0  0  0  0  0  0
   -1.2862    0.4359    0.0021 C   0  0  0  0  0  0  0  0  0  0  0  0
   -0.3035    1.3955    0.0035 O   0  0  0  0  0  0  0  0  0  0  0  0
   -5.2659    0.4593   -0.0033 Cl  0  0  0  0  0  0  0  0  0  0  0  0
    4.1407    2.1593   -0.0010 H   0  0  0  0  0  0  0  0  0  0  0  0
    1.7691    2.9032    0.0019 H   0  0  0  0  0  0  0  0  0  0  0  0
    2.8129   -1.9176   -0.0002 H   0  0  0  0  0  0  0  0  0  0  0  0
   -1.7692   -2.9031    0.0019 H   0  0  0  0  0  0  0  0  0  0  0  0
   -4.1408   -2.1593   -0.0009 H   0  0  0  0  0  0  0  0  0  0  0  0
   -2.8128    1.9176   -0.0001 H   0  0  0  0  0  0  0  0  0  0  0  0
  1  2  4  0  0  0  0
  2  3  4  0  0  0  0
  3  4  4  0  0  0  0
  4  5  4  0  0  0  0
  1  6  4  0  0  0  0
  5  6  4  0  0  0  0
  6  7  1  0  0  0  0
  4  8  1  0  0  0  0
  8  9  1  0  0  0  0
  9 10  4  0  0  0  0
 10 11  4  0  0  0  0
 11 12  4  0  0  0  0
 12 13  4  0  0  0  0
  9 14  4  0  0  0  0
 13 14  4  0  0  0  0
  3 15  1  0  0  0  0
 14 15  1  0  0  0  0
 12 16  1  0  0  0  0
  1 17  1  0  0  0  0
  2 18  1  0  0  0  0
  5 19  1  0  0  0  0
 10 20  1  0  0  0  0
 11 21  1  0  0  0  0
 13 22  1  0  0  0  0
M  END
