 xtb: 6.7.1 (edcfbbe)
          04092507313D

 38 37  0     0  0            999 V2000
    4.9993   -1.0623   -1.1176 C   0  0  0  0  0  0  0  0  0  0  0  0
    4.1957   -2.3255   -1.3815 C   0  0  0  0  0  0  0  0  0  0  0  0
    2.8579   -1.9882   -1.8007 O   0  0  0  0  0  0  0  0  0  0  0  0
    1.9251   -1.8496   -0.8879 C   0  0  0  0  0  0  0  0  0  0  0  0
    2.0783   -2.0347    0.3016 O   0  0  0  0  0  0  0  0  0  0  0  0
    0.6154   -1.3724   -1.4893 C   0  0  0  0  0  0  0  0  0  0  0  0
    0.5256    0.1424   -1.2581 C   0  0  0  0  0  0  0  0  0  0  0  0
    1.1824    0.6891   -1.9354 H   0  0  0  0  0  0  0  0  0  0  0  0
    0.8662    0.4713    0.1792 C   0  0  0  0  0  0  0  0  0  0  0  0
    0.0822    0.2455    1.0803 O   0  0  0  0  0  0  0  0  0  0  0  0
    2.0506    0.9975    0.3168 O   0  0  0  0  0  0  0  0  0  0  0  0
    2.4802    1.3631    1.6489 C   0  0  0  0  0  0  0  0  0  0  0  0
    1.8675    2.6854    2.0785 C   0  0  0  0  0  0  0  0  0  0  0  0
   -1.1629    0.7592   -1.5522 S   0  0  0  0  0  0  0  0  0  0  0  0
   -2.2120    0.5314    0.3001 P   0  0  0  0  0  0  0  0  0  0  0  0
   -2.1372    1.8415    1.7563 S   0  0  0  0  0  0  0  0  0  0  0  0
   -3.6711    0.7326   -0.3238 O   0  0  0  0  0  0  0  0  0  0  0  0
   -4.2691   -0.1183   -1.3176 C   0  0  0  0  0  0  0  0  0  0  0  0
   -2.2609   -1.0373    0.6489 O   0  0  0  0  0  0  0  0  0  0  0  0
   -1.7656   -1.6240    1.8515 C   0  0  0  0  0  0  0  0  0  0  0  0
    6.0091   -1.3323   -0.8272 H   0  0  0  0  0  0  0  0  0  0  0  0
    5.0349   -0.4465   -2.0117 H   0  0  0  0  0  0  0  0  0  0  0  0
    4.5396   -0.4906   -0.3142 H   0  0  0  0  0  0  0  0  0  0  0  0
    4.1344   -2.9448   -0.4824 H   0  0  0  0  0  0  0  0  0  0  0  0
    4.6105   -2.8972   -2.2115 H   0  0  0  0  0  0  0  0  0  0  0  0
   -0.2077   -1.8699   -0.9741 H   0  0  0  0  0  0  0  0  0  0  0  0
    0.5802   -1.5856   -2.5554 H   0  0  0  0  0  0  0  0  0  0  0  0
    2.1992    0.5582    2.3330 H   0  0  0  0  0  0  0  0  0  0  0  0
    3.5647    1.4347    1.5666 H   0  0  0  0  0  0  0  0  0  0  0  0
    2.2612    2.9593    3.0515 H   0  0  0  0  0  0  0  0  0  0  0  0
    2.1112    3.4639    1.3608 H   0  0  0  0  0  0  0  0  0  0  0  0
    0.7843    2.6009    2.1537 H   0  0  0  0  0  0  0  0  0  0  0  0
   -3.8295    0.0874   -2.2925 H   0  0  0  0  0  0  0  0  0  0  0  0
   -5.3250    0.1406   -1.3125 H   0  0  0  0  0  0  0  0  0  0  0  0
   -4.1299   -1.1644   -1.0512 H   0  0  0  0  0  0  0  0  0  0  0  0
   -0.7610   -2.0140    1.6868 H   0  0  0  0  0  0  0  0  0  0  0  0
   -2.4566   -2.4265    2.1000 H   0  0  0  0  0  0  0  0  0  0  0  0
   -1.7366   -0.8821    2.6505 H   0  0  0  0  0  0  0  0  0  0  0  0
  1  2  1  0  0  0  0
  2  3  1  0  0  0  0
  3  4  4  0  0  0  0
  4  5  2  0  0  0  0
  4  6  1  0  0  0  0
  6  7  1  0  0  0  0
  7  8  1  0  0  0  0
  7  9  1  0  0  0  0
  9 10  2  0  0  0  0
  9 11  4  0  0  0  0
 11 12  1  0  0  0  0
 12 13  1  0  0  0  0
  7 14  1  0  0  0  0
 14 15  1  0  0  0  0
 15 16  2  0  0  0  0
 15 17  1  0  0  0  0
 17 18  1  0  0  0  0
 15 19  1  0  0  0  0
 19 20  1  0  0  0  0
  1 21  1  0  0  0  0
  1 22  1  0  0  0  0
  1 23  1  0  0  0  0
  2 24  1  0  0  0  0
  2 25  1  0  0  0  0
  6 26  1  0  0  0  0
  6 27  1  0  0  0  0
 12 28  1  0  0  0  0
 12 29  1  0  0  0  0
 13 30  1  0  0  0  0
 13 31  1  0  0  0  0
 13 32  1  0  0  0  0
 18 33  1  0  0  0  0
 18 34  1  0  0  0  0
 18 35  1  0  0  0  0
 20 36  1  0  0  0  0
 20 37  1  0  0  0  0
 20 38  1  0  0  0  0
M  END
