 xtb: 6.7.1 (edcfbbe)
          04092505213D

 41 40  0     0  0            999 V2000
    2.0317   -3.8596   -0.7574 C   0  0  0  0  0  0  0  0  0  0  0  0
    1.4684   -2.5180   -0.3362 C   0  0  0  0  0  0  0  0  0  0  0  0
    2.5318   -1.5490   -0.4167 O   0  0  0  0  0  0  0  0  0  0  0  0
    2.2531    0.0145   -0.3238 P   0  0  0  0  0  0  0  0  0  0  0  0
    0.9142    0.7070   -1.5808 S   0  0  0  0  0  0  0  0  0  0  0  0
    3.6756    0.6198   -0.6029 O   0  0  0  0  0  0  0  0  0  0  0  0
    4.9350    0.0361   -0.1791 C   0  0  0  0  0  0  0  0  0  0  0  0
    5.0549   -0.0550    1.3265 C   0  0  0  0  0  0  0  0  0  0  0  0
    1.8266    0.3771    1.7381 S   0  0  0  0  0  0  0  0  0  0  0  0
    0.1119    0.9149    1.6371 C   0  0  0  0  0  0  0  0  0  0  0  0
   -1.0242   -0.4398    1.1893 S   0  0  0  0  0  0  0  0  0  0  0  0
   -2.3436    0.6077   -0.1201 P   0  0  0  0  0  0  0  0  0  0  0  0
   -2.0943    2.5427   -0.2490 S   0  0  0  0  0  0  0  0  0  0  0  0
   -3.7717    0.0797    0.3565 O   0  0  0  0  0  0  0  0  0  0  0  0
   -4.2701    0.0969    1.7063 C   0  0  0  0  0  0  0  0  0  0  0  0
   -4.3461    1.4937    2.2871 C   0  0  0  0  0  0  0  0  0  0  0  0
   -2.2626   -0.0673   -1.5372 O   0  0  0  0  0  0  0  0  0  0  0  0
   -2.4082   -1.4967   -1.7392 C   0  0  0  0  0  0  0  0  0  0  0  0
   -1.7323   -1.8495   -3.0478 C   0  0  0  0  0  0  0  0  0  0  0  0
    2.3992   -3.8066   -1.7783 H   0  0  0  0  0  0  0  0  0  0  0  0
    2.8500   -4.1413   -0.1016 H   0  0  0  0  0  0  0  0  0  0  0  0
    1.2489   -4.6081   -0.6962 H   0  0  0  0  0  0  0  0  0  0  0  0
    1.0983   -2.5421    0.6934 H   0  0  0  0  0  0  0  0  0  0  0  0
    0.6570   -2.1977   -0.9973 H   0  0  0  0  0  0  0  0  0  0  0  0
    5.0248   -0.9479   -0.6416 H   0  0  0  0  0  0  0  0  0  0  0  0
    5.6752    0.7168   -0.6024 H   0  0  0  0  0  0  0  0  0  0  0  0
    4.3127   -0.7441    1.7257 H   0  0  0  0  0  0  0  0  0  0  0  0
    6.0462   -0.4172    1.5809 H   0  0  0  0  0  0  0  0  0  0  0  0
    4.9026    0.9207    1.7807 H   0  0  0  0  0  0  0  0  0  0  0  0
    0.0008    1.7100    0.8954 H   0  0  0  0  0  0  0  0  0  0  0  0
   -0.1436    1.2683    2.6332 H   0  0  0  0  0  0  0  0  0  0  0  0
   -5.2614   -0.3507    1.6164 H   0  0  0  0  0  0  0  0  0  0  0  0
   -3.6274   -0.5440    2.3168 H   0  0  0  0  0  0  0  0  0  0  0  0
   -4.8003    1.4501    3.2718 H   0  0  0  0  0  0  0  0  0  0  0  0
   -3.3493    1.9238    2.3714 H   0  0  0  0  0  0  0  0  0  0  0  0
   -4.9387    2.1395    1.6438 H   0  0  0  0  0  0  0  0  0  0  0  0
   -1.9462   -2.0167   -0.8935 H   0  0  0  0  0  0  0  0  0  0  0  0
   -3.4763   -1.7210   -1.7613 H   0  0  0  0  0  0  0  0  0  0  0  0
   -1.7746   -2.9232   -3.1978 H   0  0  0  0  0  0  0  0  0  0  0  0
   -2.2300   -1.3463   -3.8715 H   0  0  0  0  0  0  0  0  0  0  0  0
   -0.6951   -1.5222   -3.0294 H   0  0  0  0  0  0  0  0  0  0  0  0
  1  2  1  0  0  0  0
  2  3  1  0  0  0  0
  3  4  2  0  0  0  0
  4  5  2  0  0  0  0
  4  6  2  0  0  0  0
  6  7  1  0  0  0  0
  7  8  1  0  0  0  0
  4  9  1  0  0  0  0
  9 10  1  0  0  0  0
 10 11  1  0  0  0  0
 11 12  1  0  0  0  0
 12 13  2  0  0  0  0
 12 14  2  0  0  0  0
 14 15  1  0  0  0  0
 15 16  1  0  0  0  0
 12 17  2  0  0  0  0
 17 18  1  0  0  0  0
 18 19  1  0  0  0  0
  1 20  1  0  0  0  0
  1 21  1  0  0  0  0
  1 22  1  0  0  0  0
  2 23  1  0  0  0  0
  2 24  1  0  0  0  0
  7 25  1  0  0  0  0
  7 26  1  0  0  0  0
  8 27  1  0  0  0  0
  8 28  1  0  0  0  0
  8 29  1  0  0  0  0
 10 30  1  0  0  0  0
 10 31  1  0  0  0  0
 15 32  1  0  0  0  0
 15 33  1  0  0  0  0
 16 34  1  0  0  0  0
 16 35  1  0  0  0  0
 16 36  1  0  0  0  0
 18 37  1  0  0  0  0
 18 38  1  0  0  0  0
 19 39  1  0  0  0  0
 19 40  1  0  0  0  0
 19 41  1  0  0  0  0
M  END
