 xtb: 6.7.1 (edcfbbe)
          04092505213D

 41 40  0     0  0            999 V2000
    5.2465    2.0077   -0.6165 C   0  0  0  0  0  0  0  0  0  0  0  0
    3.7553    1.7391   -0.6641 C   0  0  0  0  0  0  0  0  0  0  0  0
    3.5388    0.3504   -0.3442 O   0  0  0  0  0  0  0  0  0  0  0  0
    2.2470   -0.1696    0.4141 P   0  0  0  0  0  0  0  0  0  0  0  0
    1.5708    1.0485    1.7989 S   0  0  0  0  0  0  0  0  0  0  0  0
    2.6593   -1.6311    0.8594 O   0  0  0  0  0  0  0  0  0  0  0  0
    3.9554   -1.9696    1.4071 C   0  0  0  0  0  0  0  0  0  0  0  0
    4.2410   -1.2295    2.6963 C   0  0  0  0  0  0  0  0  0  0  0  0
    0.9037   -0.6398   -1.1695 S   0  0  0  0  0  0  0  0  0  0  0  0
   -0.2472   -1.6776   -0.2189 C   0  0  0  0  0  0  0  0  0  0  0  0
   -1.4109   -0.7379    0.7970 S   0  0  0  0  0  0  0  0  0  0  0  0
   -2.5114    0.1029   -0.8282 P   0  0  0  0  0  0  0  0  0  0  0  0
   -2.6315   -0.9940   -2.4427 S   0  0  0  0  0  0  0  0  0  0  0  0
   -1.8473    1.4979   -1.1412 O   0  0  0  0  0  0  0  0  0  0  0  0
   -1.3374    2.4655   -0.1941 C   0  0  0  0  0  0  0  0  0  0  0  0
   -2.3584    2.8773    0.8429 C   0  0  0  0  0  0  0  0  0  0  0  0
   -3.9119    0.5053   -0.1946 O   0  0  0  0  0  0  0  0  0  0  0  0
   -5.0274   -0.4020   -0.1526 C   0  0  0  0  0  0  0  0  0  0  0  0
   -4.7761   -1.5834    0.7621 C   0  0  0  0  0  0  0  0  0  0  0  0
    5.7648    1.3510   -1.3093 H   0  0  0  0  0  0  0  0  0  0  0  0
    5.4294    3.0398   -0.8964 H   0  0  0  0  0  0  0  0  0  0  0  0
    5.6289    1.8373    0.3861 H   0  0  0  0  0  0  0  0  0  0  0  0
    3.3491    1.9172   -1.6625 H   0  0  0  0  0  0  0  0  0  0  0  0
    3.2144    2.3549    0.0630 H   0  0  0  0  0  0  0  0  0  0  0  0
    3.8878   -3.0467    1.5678 H   0  0  0  0  0  0  0  0  0  0  0  0
    4.7127   -1.7515    0.6518 H   0  0  0  0  0  0  0  0  0  0  0  0
    5.1919   -1.5622    3.1005 H   0  0  0  0  0  0  0  0  0  0  0  0
    4.2877   -0.1571    2.5107 H   0  0  0  0  0  0  0  0  0  0  0  0
    3.4545   -1.4164    3.4238 H   0  0  0  0  0  0  0  0  0  0  0  0
    0.3125   -2.3288    0.4467 H   0  0  0  0  0  0  0  0  0  0  0  0
   -0.8057   -2.2476   -0.9625 H   0  0  0  0  0  0  0  0  0  0  0  0
   -0.4495    2.0462    0.2892 H   0  0  0  0  0  0  0  0  0  0  0  0
   -1.0447    3.3024   -0.8297 H   0  0  0  0  0  0  0  0  0  0  0  0
   -2.5994    2.0345    1.4878 H   0  0  0  0  0  0  0  0  0  0  0  0
   -1.9377    3.6728    1.4504 H   0  0  0  0  0  0  0  0  0  0  0  0
   -3.2674    3.2274    0.3610 H   0  0  0  0  0  0  0  0  0  0  0  0
   -5.8509    0.2171    0.2057 H   0  0  0  0  0  0  0  0  0  0  0  0
   -5.2328   -0.7431   -1.1721 H   0  0  0  0  0  0  0  0  0  0  0  0
   -5.6899   -2.1606    0.8603 H   0  0  0  0  0  0  0  0  0  0  0  0
   -4.0005   -2.2213    0.3408 H   0  0  0  0  0  0  0  0  0  0  0  0
   -4.4562   -1.2427    1.7436 H   0  0  0  0  0  0  0  0  0  0  0  0
  1  2  1  0  0  0  0
  2  3  1  0  0  0  0
  3  4  2  0  0  0  0
  4  5  2  0  0  0  0
  4  6  2  0  0  0  0
  6  7  1  0  0  0  0
  7  8  1  0  0  0  0
  4  9  1  0  0  0  0
  9 10  1  0  0  0  0
 10 11  1  0  0  0  0
 11 12  1  0  0  0  0
 12 13  2  0  0  0  0
 12 14  2  0  0  0  0
 14 15  1  0  0  0  0
 15 16  1  0  0  0  0
 12 17  2  0  0  0  0
 17 18  1  0  0  0  0
 18 19  1  0  0  0  0
  1 20  1  0  0  0  0
  1 21  1  0  0  0  0
  1 22  1  0  0  0  0
  2 23  1  0  0  0  0
  2 24  1  0  0  0  0
  7 25  1  0  0  0  0
  7 26  1  0  0  0  0
  8 27  1  0  0  0  0
  8 28  1  0  0  0  0
  8 29  1  0  0  0  0
 10 30  1  0  0  0  0
 10 31  1  0  0  0  0
 15 32  1  0  0  0  0
 15 33  1  0  0  0  0
 16 34  1  0  0  0  0
 16 35  1  0  0  0  0
 16 36  1  0  0  0  0
 18 37  1  0  0  0  0
 18 38  1  0  0  0  0
 19 39  1  0  0  0  0
 19 40  1  0  0  0  0
 19 41  1  0  0  0  0
M  END
