 xtb: 6.7.1 (edcfbbe)
          04092507313D

 38 37  0     0  0            999 V2000
    4.9201    0.2690   -1.6900 C   0  0  0  0  0  0  0  0  0  0  0  0
    4.5835   -0.8815   -0.7574 C   0  0  0  0  0  0  0  0  0  0  0  0
    3.1896   -1.2123   -0.9144 O   0  0  0  0  0  0  0  0  0  0  0  0
    2.4163   -1.2838    0.1474 C   0  0  0  0  0  0  0  0  0  0  0  0
    2.7918   -1.1642    1.2917 O   0  0  0  0  0  0  0  0  0  0  0  0
    0.9710   -1.5352   -0.2504 C   0  0  0  0  0  0  0  0  0  0  0  0
    0.4467   -0.3490   -1.0678 C   0  0  0  0  0  0  0  0  0  0  0  0
    1.0450   -0.2312   -1.9741 H   0  0  0  0  0  0  0  0  0  0  0  0
    0.4988    0.9204   -0.2450 C   0  0  0  0  0  0  0  0  0  0  0  0
   -0.5029    1.4742    0.1692 O   0  0  0  0  0  0  0  0  0  0  0  0
    1.7167    1.3213   -0.0263 O   0  0  0  0  0  0  0  0  0  0  0  0
    1.9325    2.4436    0.8632 C   0  0  0  0  0  0  0  0  0  0  0  0
    3.2902    2.2763    1.5171 C   0  0  0  0  0  0  0  0  0  0  0  0
   -1.2684   -0.5982   -1.6286 S   0  0  0  0  0  0  0  0  0  0  0  0
   -2.4265   -0.1169    0.0861 P   0  0  0  0  0  0  0  0  0  0  0  0
   -1.8053   -0.5588    1.9048 S   0  0  0  0  0  0  0  0  0  0  0  0
   -3.1777    1.2611   -0.1497 O   0  0  0  0  0  0  0  0  0  0  0  0
   -3.0570    2.4243    0.6701 C   0  0  0  0  0  0  0  0  0  0  0  0
   -3.7174   -0.9917   -0.3002 O   0  0  0  0  0  0  0  0  0  0  0  0
   -3.6938   -2.4196   -0.2508 C   0  0  0  0  0  0  0  0  0  0  0  0
    4.7452   -0.0234   -2.7211 H   0  0  0  0  0  0  0  0  0  0  0  0
    4.2975    1.1293   -1.4598 H   0  0  0  0  0  0  0  0  0  0  0  0
    5.9640    0.5375   -1.5667 H   0  0  0  0  0  0  0  0  0  0  0  0
    4.7637   -0.6235    0.2896 H   0  0  0  0  0  0  0  0  0  0  0  0
    5.1511   -1.7785   -1.0155 H   0  0  0  0  0  0  0  0  0  0  0  0
    0.3795   -1.6727    0.6571 H   0  0  0  0  0  0  0  0  0  0  0  0
    0.9175   -2.4324   -0.8668 H   0  0  0  0  0  0  0  0  0  0  0  0
    1.8806    3.3543    0.2606 H   0  0  0  0  0  0  0  0  0  0  0  0
    1.1262    2.4539    1.6019 H   0  0  0  0  0  0  0  0  0  0  0  0
    4.0798    2.3262    0.7737 H   0  0  0  0  0  0  0  0  0  0  0  0
    3.4339    3.0679    2.2447 H   0  0  0  0  0  0  0  0  0  0  0  0
    3.3396    1.3144    2.0220 H   0  0  0  0  0  0  0  0  0  0  0  0
   -4.0644    2.8181    0.7879 H   0  0  0  0  0  0  0  0  0  0  0  0
   -2.4127    3.1463    0.1716 H   0  0  0  0  0  0  0  0  0  0  0  0
   -2.6350    2.1650    1.6426 H   0  0  0  0  0  0  0  0  0  0  0  0
   -3.1184   -2.8163   -1.0876 H   0  0  0  0  0  0  0  0  0  0  0  0
   -4.7327   -2.7319   -0.3208 H   0  0  0  0  0  0  0  0  0  0  0  0
   -3.2605   -2.7553    0.6939 H   0  0  0  0  0  0  0  0  0  0  0  0
  1  2  1  0  0  0  0
  2  3  1  0  0  0  0
  3  4  1  0  0  0  0
  4  5  2  0  0  0  0
  4  6  1  0  0  0  0
  6  7  1  0  0  0  0
  7  8  1  0  0  0  0
  7  9  1  0  0  0  0
  9 10  2  0  0  0  0
  9 11  4  0  0  0  0
 11 12  1  0  0  0  0
 12 13  1  0  0  0  0
  7 14  1  0  0  0  0
 14 15  1  0  0  0  0
 15 16  2  0  0  0  0
 15 17  2  0  0  0  0
 17 18  1  0  0  0  0
 15 19  1  0  0  0  0
 19 20  1  0  0  0  0
  1 21  1  0  0  0  0
  1 22  1  0  0  0  0
  1 23  1  0  0  0  0
  2 24  1  0  0  0  0
  2 25  1  0  0  0  0
  6 26  1  0  0  0  0
  6 27  1  0  0  0  0
 12 28  1  0  0  0  0
 12 29  1  0  0  0  0
 13 30  1  0  0  0  0
 13 31  1  0  0  0  0
 13 32  1  0  0  0  0
 18 33  1  0  0  0  0
 18 34  1  0  0  0  0
 18 35  1  0  0  0  0
 20 36  1  0  0  0  0
 20 37  1  0  0  0  0
 20 38  1  0  0  0  0
M  END
