 xtb: 6.7.1 (edcfbbe)
          04092505203D

 41 40  0     0  0            999 V2000
    4.6908   -1.1398   -1.9971 C   0  0  0  0  0  0  0  0  0  0  0  0
    3.9831   -1.9534   -0.9343 C   0  0  0  0  0  0  0  0  0  0  0  0
    3.4770   -1.1434    0.1436 O   0  0  0  0  0  0  0  0  0  0  0  0
    2.5203    0.1153   -0.0176 P   0  0  0  0  0  0  0  0  0  0  0  0
    3.2811    1.8182   -0.6063 S   0  0  0  0  0  0  0  0  0  0  0  0
    1.9632    0.2721    1.4454 O   0  0  0  0  0  0  0  0  0  0  0  0
    1.3489   -0.8074    2.1939 C   0  0  0  0  0  0  0  0  0  0  0  0
    0.4349   -0.1859    3.2290 C   0  0  0  0  0  0  0  0  0  0  0  0
    0.9346   -0.6520   -1.2311 S   0  0  0  0  0  0  0  0  0  0  0  0
    0.1581    0.9467   -1.5410 C   0  0  0  0  0  0  0  0  0  0  0  0
   -0.7688    1.5744   -0.1193 S   0  0  0  0  0  0  0  0  0  0  0  0
   -2.3617    0.1840   -0.2693 P   0  0  0  0  0  0  0  0  0  0  0  0
   -2.9658   -0.2444   -2.0773 S   0  0  0  0  0  0  0  0  0  0  0  0
   -3.5393    0.7841    0.6027 O   0  0  0  0  0  0  0  0  0  0  0  0
   -3.4784    0.9906    2.0353 C   0  0  0  0  0  0  0  0  0  0  0  0
   -3.0225    2.3963    2.3707 C   0  0  0  0  0  0  0  0  0  0  0  0
   -1.7428   -1.0339    0.5647 O   0  0  0  0  0  0  0  0  0  0  0  0
   -2.1122   -2.3999    0.2938 C   0  0  0  0  0  0  0  0  0  0  0  0
   -3.5169   -2.6977    0.7771 C   0  0  0  0  0  0  0  0  0  0  0  0
    5.1227   -1.8077   -2.7354 H   0  0  0  0  0  0  0  0  0  0  0  0
    3.9863   -0.4724   -2.4915 H   0  0  0  0  0  0  0  0  0  0  0  0
    5.4783   -0.5363   -1.5518 H   0  0  0  0  0  0  0  0  0  0  0  0
    4.6680   -2.6421   -0.4365 H   0  0  0  0  0  0  0  0  0  0  0  0
    3.1448   -2.5074   -1.3658 H   0  0  0  0  0  0  0  0  0  0  0  0
    0.7916   -1.4426    1.4987 H   0  0  0  0  0  0  0  0  0  0  0  0
    2.1498   -1.3886    2.6542 H   0  0  0  0  0  0  0  0  0  0  0  0
    1.0018    0.4787    3.8741 H   0  0  0  0  0  0  0  0  0  0  0  0
   -0.3426    0.3913    2.7350 H   0  0  0  0  0  0  0  0  0  0  0  0
   -0.0182   -0.9713    3.8252 H   0  0  0  0  0  0  0  0  0  0  0  0
   -0.5225    0.8143   -2.3826 H   0  0  0  0  0  0  0  0  0  0  0  0
    0.9328    1.6829   -1.7620 H   0  0  0  0  0  0  0  0  0  0  0  0
   -4.5034    0.8202    2.3690 H   0  0  0  0  0  0  0  0  0  0  0  0
   -2.8153    0.2416    2.4742 H   0  0  0  0  0  0  0  0  0  0  0  0
   -3.0689    2.5372    3.4461 H   0  0  0  0  0  0  0  0  0  0  0  0
   -2.0009    2.5631    2.0338 H   0  0  0  0  0  0  0  0  0  0  0  0
   -3.6678    3.1236    1.8857 H   0  0  0  0  0  0  0  0  0  0  0  0
   -2.0272   -2.5766   -0.7828 H   0  0  0  0  0  0  0  0  0  0  0  0
   -1.3654   -2.9914    0.8251 H   0  0  0  0  0  0  0  0  0  0  0  0
   -3.7512   -3.7394    0.5817 H   0  0  0  0  0  0  0  0  0  0  0  0
   -3.6041   -2.5032    1.8428 H   0  0  0  0  0  0  0  0  0  0  0  0
   -4.2291   -2.0701    0.2415 H   0  0  0  0  0  0  0  0  0  0  0  0
  1  2  1  0  0  0  0
  2  3  1  0  0  0  0
  3  4  2  0  0  0  0
  4  5  2  0  0  0  0
  4  6  2  0  0  0  0
  6  7  1  0  0  0  0
  7  8  1  0  0  0  0
  4  9  1  0  0  0  0
  9 10  1  0  0  0  0
 10 11  1  0  0  0  0
 11 12  1  0  0  0  0
 12 13  2  0  0  0  0
 12 14  2  0  0  0  0
 14 15  1  0  0  0  0
 15 16  1  0  0  0  0
 12 17  1  0  0  0  0
 17 18  1  0  0  0  0
 18 19  1  0  0  0  0
  1 20  1  0  0  0  0
  1 21  1  0  0  0  0
  1 22  1  0  0  0  0
  2 23  1  0  0  0  0
  2 24  1  0  0  0  0
  7 25  1  0  0  0  0
  7 26  1  0  0  0  0
  8 27  1  0  0  0  0
  8 28  1  0  0  0  0
  8 29  1  0  0  0  0
 10 30  1  0  0  0  0
 10 31  1  0  0  0  0
 15 32  1  0  0  0  0
 15 33  1  0  0  0  0
 16 34  1  0  0  0  0
 16 35  1  0  0  0  0
 16 36  1  0  0  0  0
 18 37  1  0  0  0  0
 18 38  1  0  0  0  0
 19 39  1  0  0  0  0
 19 40  1  0  0  0  0
 19 41  1  0  0  0  0
M  END
