 xtb: 6.7.1 (edcfbbe)
          04092505213D

 41 40  0     0  0            999 V2000
    5.3002   -0.7850   -1.7473 C   0  0  0  0  0  0  0  0  0  0  0  0
    4.7950    0.1382   -0.6560 C   0  0  0  0  0  0  0  0  0  0  0  0
    3.5771   -0.3807   -0.0823 O   0  0  0  0  0  0  0  0  0  0  0  0
    2.1511    0.2036   -0.5280 P   0  0  0  0  0  0  0  0  0  0  0  0
    1.8701    0.3670   -2.4519 S   0  0  0  0  0  0  0  0  0  0  0  0
    2.0401    1.6163    0.1921 O   0  0  0  0  0  0  0  0  0  0  0  0
    2.2499    1.7686    1.6183 C   0  0  0  0  0  0  0  0  0  0  0  0
    1.0883    2.5356    2.2156 C   0  0  0  0  0  0  0  0  0  0  0  0
    1.0314   -1.1965    0.5760 S   0  0  0  0  0  0  0  0  0  0  0  0
   -0.0774   -1.8093   -0.7412 C   0  0  0  0  0  0  0  0  0  0  0  0
   -1.7903   -1.9182   -0.1910 S   0  0  0  0  0  0  0  0  0  0  0  0
   -2.0596    0.1293    0.3349 P   0  0  0  0  0  0  0  0  0  0  0  0
   -1.1584    1.4541   -0.7980 S   0  0  0  0  0  0  0  0  0  0  0  0
   -1.6079    0.2647    1.8390 O   0  0  0  0  0  0  0  0  0  0  0  0
   -1.7489   -0.7347    2.8810 C   0  0  0  0  0  0  0  0  0  0  0  0
   -3.1769   -1.2015    3.0563 C   0  0  0  0  0  0  0  0  0  0  0  0
   -3.6350    0.3050    0.4306 O   0  0  0  0  0  0  0  0  0  0  0  0
   -4.4513    0.6646   -0.6961 C   0  0  0  0  0  0  0  0  0  0  0  0
   -4.4689   -0.4116   -1.7627 C   0  0  0  0  0  0  0  0  0  0  0  0
    6.2512   -0.4161   -2.1181 H   0  0  0  0  0  0  0  0  0  0  0  0
    5.4291   -1.7884   -1.3519 H   0  0  0  0  0  0  0  0  0  0  0  0
    4.5864   -0.8185   -2.5676 H   0  0  0  0  0  0  0  0  0  0  0  0
    4.6114    1.1445   -1.0478 H   0  0  0  0  0  0  0  0  0  0  0  0
    5.4986    0.1913    0.1773 H   0  0  0  0  0  0  0  0  0  0  0  0
    2.3499    0.7775    2.0733 H   0  0  0  0  0  0  0  0  0  0  0  0
    3.1868    2.3188    1.7318 H   0  0  0  0  0  0  0  0  0  0  0  0
    1.2685    2.6893    3.2746 H   0  0  0  0  0  0  0  0  0  0  0  0
    0.9864    3.4972    1.7197 H   0  0  0  0  0  0  0  0  0  0  0  0
    0.1607    1.9834    2.0836 H   0  0  0  0  0  0  0  0  0  0  0  0
    0.2225   -2.8191   -1.0101 H   0  0  0  0  0  0  0  0  0  0  0  0
    0.0030   -1.1327   -1.5970 H   0  0  0  0  0  0  0  0  0  0  0  0
   -1.0845   -1.5693    2.6390 H   0  0  0  0  0  0  0  0  0  0  0  0
   -1.3815   -0.2182    3.7688 H   0  0  0  0  0  0  0  0  0  0  0  0
   -3.2272   -1.8678    3.9119 H   0  0  0  0  0  0  0  0  0  0  0  0
   -3.8331   -0.3512    3.2218 H   0  0  0  0  0  0  0  0  0  0  0  0
   -3.5111   -1.7369    2.1701 H   0  0  0  0  0  0  0  0  0  0  0  0
   -5.4401    0.8167   -0.2611 H   0  0  0  0  0  0  0  0  0  0  0  0
   -4.0767    1.6071   -1.1079 H   0  0  0  0  0  0  0  0  0  0  0  0
   -3.4892   -0.4861   -2.2327 H   0  0  0  0  0  0  0  0  0  0  0  0
   -4.7247   -1.3741   -1.3273 H   0  0  0  0  0  0  0  0  0  0  0  0
   -5.2004   -0.1521   -2.5213 H   0  0  0  0  0  0  0  0  0  0  0  0
  1  2  1  0  0  0  0
  2  3  1  0  0  0  0
  3  4  1  0  0  0  0
  4  5  2  0  0  0  0
  4  6  2  0  0  0  0
  6  7  1  0  0  0  0
  7  8  1  0  0  0  0
  4  9  1  0  0  0  0
  9 10  1  0  0  0  0
 10 11  1  0  0  0  0
 11 12  1  0  0  0  0
 12 13  2  0  0  0  0
 12 14  2  0  0  0  0
 14 15  1  0  0  0  0
 15 16  1  0  0  0  0
 12 17  2  0  0  0  0
 17 18  1  0  0  0  0
 18 19  1  0  0  0  0
  1 20  1  0  0  0  0
  1 21  1  0  0  0  0
  1 22  1  0  0  0  0
  2 23  1  0  0  0  0
  2 24  1  0  0  0  0
  7 25  1  0  0  0  0
  7 26  1  0  0  0  0
  8 27  1  0  0  0  0
  8 28  1  0  0  0  0
  8 29  1  0  0  0  0
 10 30  1  0  0  0  0
 10 31  1  0  0  0  0
 15 32  1  0  0  0  0
 15 33  1  0  0  0  0
 16 34  1  0  0  0  0
 16 35  1  0  0  0  0
 16 36  1  0  0  0  0
 18 37  1  0  0  0  0
 18 38  1  0  0  0  0
 19 39  1  0  0  0  0
 19 40  1  0  0  0  0
 19 41  1  0  0  0  0
M  END
