 xtb: 6.7.1 (edcfbbe)
          04092507313D

 38 37  0     0  0            999 V2000
    5.4906   -1.2304   -1.8030 C   0  0  0  0  0  0  0  0  0  0  0  0
    4.6564   -0.5381   -0.7406 C   0  0  0  0  0  0  0  0  0  0  0  0
    3.2710   -0.8795   -0.9447 O   0  0  0  0  0  0  0  0  0  0  0  0
    2.5059   -1.1154    0.0985 C   0  0  0  0  0  0  0  0  0  0  0  0
    2.8746   -1.0849    1.2510 O   0  0  0  0  0  0  0  0  0  0  0  0
    1.0829   -1.4391   -0.3286 C   0  0  0  0  0  0  0  0  0  0  0  0
    0.4875   -0.2655   -1.1138 C   0  0  0  0  0  0  0  0  0  0  0  0
    1.0819   -0.0802   -2.0113 H   0  0  0  0  0  0  0  0  0  0  0  0
    0.4523    0.9750   -0.2492 C   0  0  0  0  0  0  0  0  0  0  0  0
   -0.5924    1.4687    0.1378 O   0  0  0  0  0  0  0  0  0  0  0  0
    1.6363    1.4195    0.0447 O   0  0  0  0  0  0  0  0  0  0  0  0
    1.7511    2.5205    0.9792 C   0  0  0  0  0  0  0  0  0  0  0  0
    3.1711    2.5332    1.5077 C   0  0  0  0  0  0  0  0  0  0  0  0
   -1.2109   -0.6027   -1.6829 S   0  0  0  0  0  0  0  0  0  0  0  0
   -2.3553   -0.2149    0.0525 P   0  0  0  0  0  0  0  0  0  0  0  0
   -1.7735   -0.5661    1.9059 S   0  0  0  0  0  0  0  0  0  0  0  0
   -3.2801    1.0759   -0.1409 O   0  0  0  0  0  0  0  0  0  0  0  0
   -3.1708    2.3116    0.5636 C   0  0  0  0  0  0  0  0  0  0  0  0
   -3.4158   -1.3228   -0.4336 O   0  0  0  0  0  0  0  0  0  0  0  0
   -4.5888   -1.6185    0.3270 C   0  0  0  0  0  0  0  0  0  0  0  0
    6.5299   -0.9425   -1.6851 H   0  0  0  0  0  0  0  0  0  0  0  0
    5.4077   -2.3092   -1.7059 H   0  0  0  0  0  0  0  0  0  0  0  0
    5.1478   -0.9401   -2.7916 H   0  0  0  0  0  0  0  0  0  0  0  0
    4.7311    0.5491   -0.8259 H   0  0  0  0  0  0  0  0  0  0  0  0
    4.9464   -0.8419    0.2692 H   0  0  0  0  0  0  0  0  0  0  0  0
    0.4916   -1.6479    0.5658 H   0  0  0  0  0  0  0  0  0  0  0  0
    1.0918   -2.3189   -0.9721 H   0  0  0  0  0  0  0  0  0  0  0  0
    1.5053    3.4409    0.4429 H   0  0  0  0  0  0  0  0  0  0  0  0
    1.0202    2.3661    1.7782 H   0  0  0  0  0  0  0  0  0  0  0  0
    3.4043    1.5716    1.9581 H   0  0  0  0  0  0  0  0  0  0  0  0
    3.8717    2.7268    0.7014 H   0  0  0  0  0  0  0  0  0  0  0  0
    3.2652    3.3106    2.2582 H   0  0  0  0  0  0  0  0  0  0  0  0
   -2.7249    2.1467    1.5455 H   0  0  0  0  0  0  0  0  0  0  0  0
   -4.1867    2.6878    0.6636 H   0  0  0  0  0  0  0  0  0  0  0  0
   -2.5553    3.0034   -0.0074 H   0  0  0  0  0  0  0  0  0  0  0  0
   -4.9761   -2.5496   -0.0790 H   0  0  0  0  0  0  0  0  0  0  0  0
   -5.3192   -0.8176    0.2159 H   0  0  0  0  0  0  0  0  0  0  0  0
   -4.3310   -1.7412    1.3814 H   0  0  0  0  0  0  0  0  0  0  0  0
  1  2  1  0  0  0  0
  2  3  1  0  0  0  0
  3  4  1  0  0  0  0
  4  5  2  0  0  0  0
  4  6  1  0  0  0  0
  6  7  1  0  0  0  0
  7  8  1  0  0  0  0
  7  9  1  0  0  0  0
  9 10  2  0  0  0  0
  9 11  4  0  0  0  0
 11 12  1  0  0  0  0
 12 13  1  0  0  0  0
  7 14  1  0  0  0  0
 14 15  1  0  0  0  0
 15 16  2  0  0  0  0
 15 17  2  0  0  0  0
 17 18  1  0  0  0  0
 15 19  1  0  0  0  0
 19 20  1  0  0  0  0
  1 21  1  0  0  0  0
  1 22  1  0  0  0  0
  1 23  1  0  0  0  0
  2 24  1  0  0  0  0
  2 25  1  0  0  0  0
  6 26  1  0  0  0  0
  6 27  1  0  0  0  0
 12 28  1  0  0  0  0
 12 29  1  0  0  0  0
 13 30  1  0  0  0  0
 13 31  1  0  0  0  0
 13 32  1  0  0  0  0
 18 33  1  0  0  0  0
 18 34  1  0  0  0  0
 18 35  1  0  0  0  0
 20 36  1  0  0  0  0
 20 37  1  0  0  0  0
 20 38  1  0  0  0  0
M  END
