 xtb: 6.7.1 (edcfbbe)
          04092505213D

 41 40  0     0  0            999 V2000
    2.2955    2.9825   -1.1924 C   0  0  0  0  0  0  0  0  0  0  0  0
    1.6498    1.6386   -1.4584 C   0  0  0  0  0  0  0  0  0  0  0  0
    1.3872    0.9522   -0.2114 O   0  0  0  0  0  0  0  0  0  0  0  0
    2.3481   -0.2214    0.2594 P   0  0  0  0  0  0  0  0  0  0  0  0
    4.2738    0.1050    0.1323 S   0  0  0  0  0  0  0  0  0  0  0  0
    1.8420   -1.4270   -0.6607 O   0  0  0  0  0  0  0  0  0  0  0  0
    2.6438   -2.5975   -0.8820 C   0  0  0  0  0  0  0  0  0  0  0  0
    2.7144   -3.4736    0.3528 C   0  0  0  0  0  0  0  0  0  0  0  0
    1.5571   -0.5726    2.1766 S   0  0  0  0  0  0  0  0  0  0  0  0
   -0.1706   -0.9191    1.7384 C   0  0  0  0  0  0  0  0  0  0  0  0
   -1.1918    0.5919    1.6803 S   0  0  0  0  0  0  0  0  0  0  0  0
   -2.2331    0.1536   -0.0977 P   0  0  0  0  0  0  0  0  0  0  0  0
   -1.2414   -0.5601   -1.6400 S   0  0  0  0  0  0  0  0  0  0  0  0
   -3.0843    1.4616   -0.3955 O   0  0  0  0  0  0  0  0  0  0  0  0
   -2.5795    2.5518   -1.1840 C   0  0  0  0  0  0  0  0  0  0  0  0
   -1.6224    3.4199   -0.3921 C   0  0  0  0  0  0  0  0  0  0  0  0
   -3.3146   -0.8368    0.5023 O   0  0  0  0  0  0  0  0  0  0  0  0
   -4.1057   -1.7159   -0.3240 C   0  0  0  0  0  0  0  0  0  0  0  0
   -5.1102   -0.9527   -1.1611 C   0  0  0  0  0  0  0  0  0  0  0  0
    2.4117    3.5136   -2.1315 H   0  0  0  0  0  0  0  0  0  0  0  0
    1.6799    3.5702   -0.5171 H   0  0  0  0  0  0  0  0  0  0  0  0
    3.2746    2.8399   -0.7397 H   0  0  0  0  0  0  0  0  0  0  0  0
    2.2898    1.0106   -2.0845 H   0  0  0  0  0  0  0  0  0  0  0  0
    0.6752    1.7388   -1.9403 H   0  0  0  0  0  0  0  0  0  0  0  0
    2.1493   -3.1023   -1.7134 H   0  0  0  0  0  0  0  0  0  0  0  0
    3.6468   -2.2771   -1.1822 H   0  0  0  0  0  0  0  0  0  0  0  0
    1.7164   -3.7512    0.6823 H   0  0  0  0  0  0  0  0  0  0  0  0
    3.2783   -4.3717    0.1221 H   0  0  0  0  0  0  0  0  0  0  0  0
    3.2167   -2.9374    1.1578 H   0  0  0  0  0  0  0  0  0  0  0  0
   -0.5530   -1.5687    2.5208 H   0  0  0  0  0  0  0  0  0  0  0  0
   -0.2013   -1.3995    0.7592 H   0  0  0  0  0  0  0  0  0  0  0  0
   -2.0924    2.1404   -2.0752 H   0  0  0  0  0  0  0  0  0  0  0  0
   -3.4725    3.1061   -1.4769 H   0  0  0  0  0  0  0  0  0  0  0  0
   -0.7412    2.8468   -0.1084 H   0  0  0  0  0  0  0  0  0  0  0  0
   -1.3172    4.2663   -0.9994 H   0  0  0  0  0  0  0  0  0  0  0  0
   -2.1047    3.7794    0.5131 H   0  0  0  0  0  0  0  0  0  0  0  0
   -3.4292   -2.2922   -0.9637 H   0  0  0  0  0  0  0  0  0  0  0  0
   -4.5944   -2.3767    0.3930 H   0  0  0  0  0  0  0  0  0  0  0  0
   -5.7083   -0.3025   -0.5283 H   0  0  0  0  0  0  0  0  0  0  0  0
   -4.5915   -0.3444   -1.9006 H   0  0  0  0  0  0  0  0  0  0  0  0
   -5.7588   -1.6555   -1.6748 H   0  0  0  0  0  0  0  0  0  0  0  0
  1  2  1  0  0  0  0
  2  3  1  0  0  0  0
  3  4  2  0  0  0  0
  4  5  2  0  0  0  0
  4  6  2  0  0  0  0
  6  7  1  0  0  0  0
  7  8  1  0  0  0  0
  4  9  1  0  0  0  0
  9 10  1  0  0  0  0
 10 11  1  0  0  0  0
 11 12  1  0  0  0  0
 12 13  2  0  0  0  0
 12 14  2  0  0  0  0
 14 15  1  0  0  0  0
 15 16  1  0  0  0  0
 12 17  2  0  0  0  0
 17 18  1  0  0  0  0
 18 19  1  0  0  0  0
  1 20  1  0  0  0  0
  1 21  1  0  0  0  0
  1 22  1  0  0  0  0
  2 23  1  0  0  0  0
  2 24  1  0  0  0  0
  7 25  1  0  0  0  0
  7 26  1  0  0  0  0
  8 27  1  0  0  0  0
  8 28  1  0  0  0  0
  8 29  1  0  0  0  0
 10 30  1  0  0  0  0
 10 31  1  0  0  0  0
 15 32  1  0  0  0  0
 15 33  1  0  0  0  0
 16 34  1  0  0  0  0
 16 35  1  0  0  0  0
 16 36  1  0  0  0  0
 18 37  1  0  0  0  0
 18 38  1  0  0  0  0
 19 39  1  0  0  0  0
 19 40  1  0  0  0  0
 19 41  1  0  0  0  0
M  END
