 xtb: 6.7.1 (edcfbbe)
          04092507313D

 38 37  0     0  0            999 V2000
    1.4862   -3.6909    0.4882 C   0  0  0  0  0  0  0  0  0  0  0  0
    2.3866   -2.4705    0.4780 C   0  0  0  0  0  0  0  0  0  0  0  0
    2.0490   -1.6672   -0.6676 O   0  0  0  0  0  0  0  0  0  0  0  0
    2.1710   -0.3582   -0.6072 C   0  0  0  0  0  0  0  0  0  0  0  0
    2.5473    0.2666    0.3614 O   0  0  0  0  0  0  0  0  0  0  0  0
    1.7673    0.2909   -1.9203 C   0  0  0  0  0  0  0  0  0  0  0  0
    0.3616    0.8898   -1.8083 C   0  0  0  0  0  0  0  0  0  0  0  0
    0.1315    1.4464   -2.7212 H   0  0  0  0  0  0  0  0  0  0  0  0
    0.2420    1.8208   -0.6192 C   0  0  0  0  0  0  0  0  0  0  0  0
   -0.6271    1.6805    0.2256 O   0  0  0  0  0  0  0  0  0  0  0  0
    1.1358    2.7593   -0.6361 O   0  0  0  0  0  0  0  0  0  0  0  0
    1.2465    3.6700    0.4811 C   0  0  0  0  0  0  0  0  0  0  0  0
    2.6930    3.6874    0.9397 C   0  0  0  0  0  0  0  0  0  0  0  0
   -0.9288   -0.3913   -1.6938 S   0  0  0  0  0  0  0  0  0  0  0  0
   -1.4591   -0.5918    0.3705 P   0  0  0  0  0  0  0  0  0  0  0  0
   -0.2779   -0.6050    1.9368 S   0  0  0  0  0  0  0  0  0  0  0  0
   -2.8687    0.1570    0.5333 O   0  0  0  0  0  0  0  0  0  0  0  0
   -3.1242    1.3148    1.3238 C   0  0  0  0  0  0  0  0  0  0  0  0
   -1.9890   -2.1001    0.2621 O   0  0  0  0  0  0  0  0  0  0  0  0
   -3.0084   -2.5417   -0.6493 C   0  0  0  0  0  0  0  0  0  0  0  0
    0.4514   -3.3879    0.6360 H   0  0  0  0  0  0  0  0  0  0  0  0
    1.5689   -4.2221   -0.4551 H   0  0  0  0  0  0  0  0  0  0  0  0
    1.7788   -4.3441    1.3031 H   0  0  0  0  0  0  0  0  0  0  0  0
    3.4389   -2.7504    0.3763 H   0  0  0  0  0  0  0  0  0  0  0  0
    2.2573   -1.8666    1.3817 H   0  0  0  0  0  0  0  0  0  0  0  0
    1.7758   -0.4596   -2.7088 H   0  0  0  0  0  0  0  0  0  0  0  0
    2.4707    1.0955   -2.1370 H   0  0  0  0  0  0  0  0  0  0  0  0
    0.9281    4.6479    0.1131 H   0  0  0  0  0  0  0  0  0  0  0  0
    0.5783    3.3325    1.2773 H   0  0  0  0  0  0  0  0  0  0  0  0
    2.7887    4.3422    1.7992 H   0  0  0  0  0  0  0  0  0  0  0  0
    2.9994    2.6817    1.2191 H   0  0  0  0  0  0  0  0  0  0  0  0
    3.3359    4.0427    0.1405 H   0  0  0  0  0  0  0  0  0  0  0  0
   -2.4076    1.3784    2.1437 H   0  0  0  0  0  0  0  0  0  0  0  0
   -4.1341    1.1941    1.7104 H   0  0  0  0  0  0  0  0  0  0  0  0
   -3.0503    2.2054    0.7020 H   0  0  0  0  0  0  0  0  0  0  0  0
   -3.2679   -3.5447   -0.3192 H   0  0  0  0  0  0  0  0  0  0  0  0
   -2.6137   -2.5619   -1.6647 H   0  0  0  0  0  0  0  0  0  0  0  0
   -3.8732   -1.8832   -0.5947 H   0  0  0  0  0  0  0  0  0  0  0  0
  1  2  1  0  0  0  0
  2  3  1  0  0  0  0
  3  4  1  0  0  0  0
  4  5  2  0  0  0  0
  4  6  1  0  0  0  0
  6  7  1  0  0  0  0
  7  8  1  0  0  0  0
  7  9  1  0  0  0  0
  9 10  2  0  0  0  0
  9 11  4  0  0  0  0
 11 12  1  0  0  0  0
 12 13  1  0  0  0  0
  7 14  1  0  0  0  0
 14 15  1  0  0  0  0
 15 16  2  0  0  0  0
 15 17  1  0  0  0  0
 17 18  1  0  0  0  0
 15 19  1  0  0  0  0
 19 20  1  0  0  0  0
  1 21  1  0  0  0  0
  1 22  1  0  0  0  0
  1 23  1  0  0  0  0
  2 24  1  0  0  0  0
  2 25  1  0  0  0  0
  6 26  1  0  0  0  0
  6 27  1  0  0  0  0
 12 28  1  0  0  0  0
 12 29  1  0  0  0  0
 13 30  1  0  0  0  0
 13 31  1  0  0  0  0
 13 32  1  0  0  0  0
 18 33  1  0  0  0  0
 18 34  1  0  0  0  0
 18 35  1  0  0  0  0
 20 36  1  0  0  0  0
 20 37  1  0  0  0  0
 20 38  1  0  0  0  0
M  END
