 xtb: 6.7.1 (edcfbbe)
          04092505213D

 41 40  0     0  0            999 V2000
    3.4414   -0.7493   -2.3809 C   0  0  0  0  0  0  0  0  0  0  0  0
    2.0022   -0.3151   -2.2121 C   0  0  0  0  0  0  0  0  0  0  0  0
    1.5232   -0.6080   -0.8856 O   0  0  0  0  0  0  0  0  0  0  0  0
    2.0396    0.1877    0.3803 P   0  0  0  0  0  0  0  0  0  0  0  0
    2.7312    1.9983    0.1232 S   0  0  0  0  0  0  0  0  0  0  0  0
    3.0639   -0.8907    0.9628 O   0  0  0  0  0  0  0  0  0  0  0  0
    3.8376   -0.6308    2.1496 C   0  0  0  0  0  0  0  0  0  0  0  0
    5.2162   -0.1117    1.7904 C   0  0  0  0  0  0  0  0  0  0  0  0
    0.4065    0.0360    1.7185 S   0  0  0  0  0  0  0  0  0  0  0  0
   -0.0924   -1.6743    1.3964 C   0  0  0  0  0  0  0  0  0  0  0  0
   -1.0395   -1.9260   -0.1503 S   0  0  0  0  0  0  0  0  0  0  0  0
   -1.8873   -0.0236   -0.4791 P   0  0  0  0  0  0  0  0  0  0  0  0
   -0.8593    1.4997   -1.1617 S   0  0  0  0  0  0  0  0  0  0  0  0
   -2.6112    0.1835    0.9313 O   0  0  0  0  0  0  0  0  0  0  0  0
   -2.9037    1.4886    1.4625 C   0  0  0  0  0  0  0  0  0  0  0  0
   -4.0872    2.1137    0.7528 C   0  0  0  0  0  0  0  0  0  0  0  0
   -3.0091   -0.3706   -1.5428 O   0  0  0  0  0  0  0  0  0  0  0  0
   -4.0521   -1.3502   -1.2978 C   0  0  0  0  0  0  0  0  0  0  0  0
   -5.3091   -0.8857   -2.0046 C   0  0  0  0  0  0  0  0  0  0  0  0
    3.7497   -0.5814   -3.4078 H   0  0  0  0  0  0  0  0  0  0  0  0
    4.0774   -0.1640   -1.7176 H   0  0  0  0  0  0  0  0  0  0  0  0
    3.5455   -1.8026   -2.1347 H   0  0  0  0  0  0  0  0  0  0  0  0
    1.3233   -0.8690   -2.8631 H   0  0  0  0  0  0  0  0  0  0  0  0
    1.8864    0.7586   -2.3947 H   0  0  0  0  0  0  0  0  0  0  0  0
    3.3019    0.0871    2.7792 H   0  0  0  0  0  0  0  0  0  0  0  0
    3.8975   -1.5934    2.6612 H   0  0  0  0  0  0  0  0  0  0  0  0
    5.7970    0.0195    2.6976 H   0  0  0  0  0  0  0  0  0  0  0  0
    5.7219   -0.8170    1.1371 H   0  0  0  0  0  0  0  0  0  0  0  0
    5.1340    0.8456    1.2803 H   0  0  0  0  0  0  0  0  0  0  0  0
   -0.7236   -1.9611    2.2341 H   0  0  0  0  0  0  0  0  0  0  0  0
    0.7892   -2.3081    1.3233 H   0  0  0  0  0  0  0  0  0  0  0  0
   -3.1058    1.3073    2.5189 H   0  0  0  0  0  0  0  0  0  0  0  0
   -2.0127    2.1168    1.3606 H   0  0  0  0  0  0  0  0  0  0  0  0
   -3.8498    2.2486   -0.3026 H   0  0  0  0  0  0  0  0  0  0  0  0
   -4.9627    1.4759    0.8433 H   0  0  0  0  0  0  0  0  0  0  0  0
   -4.3005    3.0830    1.1919 H   0  0  0  0  0  0  0  0  0  0  0  0
   -3.6992   -2.3043   -1.6949 H   0  0  0  0  0  0  0  0  0  0  0  0
   -4.2074   -1.4407   -0.2200 H   0  0  0  0  0  0  0  0  0  0  0  0
   -6.0880   -1.6292   -1.8697 H   0  0  0  0  0  0  0  0  0  0  0  0
   -5.6437    0.0647   -1.5977 H   0  0  0  0  0  0  0  0  0  0  0  0
   -5.1118   -0.7586   -3.0652 H   0  0  0  0  0  0  0  0  0  0  0  0
  1  2  1  0  0  0  0
  2  3  1  0  0  0  0
  3  4  2  0  0  0  0
  4  5  2  0  0  0  0
  4  6  2  0  0  0  0
  6  7  1  0  0  0  0
  7  8  1  0  0  0  0
  4  9  1  0  0  0  0
  9 10  1  0  0  0  0
 10 11  1  0  0  0  0
 11 12  1  0  0  0  0
 12 13  2  0  0  0  0
 12 14  1  0  0  0  0
 14 15  1  0  0  0  0
 15 16  1  0  0  0  0
 12 17  2  0  0  0  0
 17 18  1  0  0  0  0
 18 19  1  0  0  0  0
  1 20  1  0  0  0  0
  1 21  1  0  0  0  0
  1 22  1  0  0  0  0
  2 23  1  0  0  0  0
  2 24  1  0  0  0  0
  7 25  1  0  0  0  0
  7 26  1  0  0  0  0
  8 27  1  0  0  0  0
  8 28  1  0  0  0  0
  8 29  1  0  0  0  0
 10 30  1  0  0  0  0
 10 31  1  0  0  0  0
 15 32  1  0  0  0  0
 15 33  1  0  0  0  0
 16 34  1  0  0  0  0
 16 35  1  0  0  0  0
 16 36  1  0  0  0  0
 18 37  1  0  0  0  0
 18 38  1  0  0  0  0
 19 39  1  0  0  0  0
 19 40  1  0  0  0  0
 19 41  1  0  0  0  0
M  END
