 xtb: 6.7.1 (edcfbbe)
          04092505203D

 41 40  0     0  0            999 V2000
    3.6652    1.3680   -2.3456 C   0  0  0  0  0  0  0  0  0  0  0  0
    4.2979    1.2223   -0.9763 C   0  0  0  0  0  0  0  0  0  0  0  0
    3.7952    0.0723   -0.2815 O   0  0  0  0  0  0  0  0  0  0  0  0
    2.2966   -0.0076    0.2611 P   0  0  0  0  0  0  0  0  0  0  0  0
    1.7131    1.6933    1.0474 S   0  0  0  0  0  0  0  0  0  0  0  0
    2.3743   -1.2624    1.2177 O   0  0  0  0  0  0  0  0  0  0  0  0
    2.7010   -1.1412    2.6244 C   0  0  0  0  0  0  0  0  0  0  0  0
    1.4400   -1.1361    3.4645 C   0  0  0  0  0  0  0  0  0  0  0  0
    1.2249   -0.8586   -1.3543 S   0  0  0  0  0  0  0  0  0  0  0  0
    0.0234   -1.8772   -0.4413 C   0  0  0  0  0  0  0  0  0  0  0  0
   -0.9813   -0.9541    0.7397 S   0  0  0  0  0  0  0  0  0  0  0  0
   -2.1739    0.1504   -0.6488 P   0  0  0  0  0  0  0  0  0  0  0  0
   -2.1593   -0.5336   -2.4839 S   0  0  0  0  0  0  0  0  0  0  0  0
   -1.6702    1.6437   -0.5598 O   0  0  0  0  0  0  0  0  0  0  0  0
   -2.1062    2.6231    0.4153 C   0  0  0  0  0  0  0  0  0  0  0  0
   -1.8568    2.1885    1.8434 C   0  0  0  0  0  0  0  0  0  0  0  0
   -3.6140    0.2370    0.0207 O   0  0  0  0  0  0  0  0  0  0  0  0
   -4.6225   -0.7650   -0.2001 C   0  0  0  0  0  0  0  0  0  0  0  0
   -4.2511   -2.1012    0.4095 C   0  0  0  0  0  0  0  0  0  0  0  0
    2.5943    1.5496   -2.2412 H   0  0  0  0  0  0  0  0  0  0  0  0
    4.1148    2.2061   -2.8683 H   0  0  0  0  0  0  0  0  0  0  0  0
    3.8051    0.4599   -2.9266 H   0  0  0  0  0  0  0  0  0  0  0  0
    4.1034    2.1107   -0.3654 H   0  0  0  0  0  0  0  0  0  0  0  0
    5.3720    1.0453   -1.0435 H   0  0  0  0  0  0  0  0  0  0  0  0
    3.3230   -2.0125    2.8344 H   0  0  0  0  0  0  0  0  0  0  0  0
    3.2803   -0.2276    2.7824 H   0  0  0  0  0  0  0  0  0  0  0  0
    1.7121   -1.1277    4.5149 H   0  0  0  0  0  0  0  0  0  0  0  0
    0.8464   -0.2520    3.2437 H   0  0  0  0  0  0  0  0  0  0  0  0
    0.8395   -2.0160    3.2518 H   0  0  0  0  0  0  0  0  0  0  0  0
    0.5493   -2.6443    0.1200 H   0  0  0  0  0  0  0  0  0  0  0  0
   -0.6153   -2.3081   -1.2129 H   0  0  0  0  0  0  0  0  0  0  0  0
   -1.5170    3.5054    0.1607 H   0  0  0  0  0  0  0  0  0  0  0  0
   -3.1671    2.8159    0.2436 H   0  0  0  0  0  0  0  0  0  0  0  0
   -0.7957    2.0140    2.0035 H   0  0  0  0  0  0  0  0  0  0  0  0
   -2.1885    2.9754    2.5133 H   0  0  0  0  0  0  0  0  0  0  0  0
   -2.4063    1.2755    2.0642 H   0  0  0  0  0  0  0  0  0  0  0  0
   -5.5129   -0.3422    0.2672 H   0  0  0  0  0  0  0  0  0  0  0  0
   -4.7781   -0.8650   -1.2788 H   0  0  0  0  0  0  0  0  0  0  0  0
   -5.0967   -2.7767    0.3298 H   0  0  0  0  0  0  0  0  0  0  0  0
   -3.4063   -2.5317   -0.1258 H   0  0  0  0  0  0  0  0  0  0  0  0
   -3.9816   -1.9809    1.4556 H   0  0  0  0  0  0  0  0  0  0  0  0
  1  2  1  0  0  0  0
  2  3  1  0  0  0  0
  3  4  2  0  0  0  0
  4  5  2  0  0  0  0
  4  6  2  0  0  0  0
  6  7  1  0  0  0  0
  7  8  1  0  0  0  0
  4  9  1  0  0  0  0
  9 10  1  0  0  0  0
 10 11  1  0  0  0  0
 11 12  1  0  0  0  0
 12 13  2  0  0  0  0
 12 14  2  0  0  0  0
 14 15  1  0  0  0  0
 15 16  1  0  0  0  0
 12 17  2  0  0  0  0
 17 18  1  0  0  0  0
 18 19  1  0  0  0  0
  1 20  1  0  0  0  0
  1 21  1  0  0  0  0
  1 22  1  0  0  0  0
  2 23  1  0  0  0  0
  2 24  1  0  0  0  0
  7 25  1  0  0  0  0
  7 26  1  0  0  0  0
  8 27  1  0  0  0  0
  8 28  1  0  0  0  0
  8 29  1  0  0  0  0
 10 30  1  0  0  0  0
 10 31  1  0  0  0  0
 15 32  1  0  0  0  0
 15 33  1  0  0  0  0
 16 34  1  0  0  0  0
 16 35  1  0  0  0  0
 16 36  1  0  0  0  0
 18 37  1  0  0  0  0
 18 38  1  0  0  0  0
 19 39  1  0  0  0  0
 19 40  1  0  0  0  0
 19 41  1  0  0  0  0
M  END
