 xtb: 6.7.1 (edcfbbe)
          04092505203D

 41 40  0     0  0            999 V2000
    5.7027    0.2320   -1.0230 C   0  0  0  0  0  0  0  0  0  0  0  0
    4.2436   -0.1582   -1.1465 C   0  0  0  0  0  0  0  0  0  0  0  0
    3.5399    0.4008   -0.0217 O   0  0  0  0  0  0  0  0  0  0  0  0
    1.9503    0.4978   -0.0184 P   0  0  0  0  0  0  0  0  0  0  0  0
    1.2105    1.3756   -1.6087 S   0  0  0  0  0  0  0  0  0  0  0  0
    1.6895    1.2744    1.3257 O   0  0  0  0  0  0  0  0  0  0  0  0
    2.5657    1.2326    2.4848 C   0  0  0  0  0  0  0  0  0  0  0  0
    2.7134   -0.1583    3.0649 C   0  0  0  0  0  0  0  0  0  0  0  0
    1.3463   -1.5324    0.2532 S   0  0  0  0  0  0  0  0  0  0  0  0
    0.1290   -1.7497   -1.0749 C   0  0  0  0  0  0  0  0  0  0  0  0
   -1.5522   -2.0339   -0.4640 S   0  0  0  0  0  0  0  0  0  0  0  0
   -2.1465    0.0049   -0.3268 P   0  0  0  0  0  0  0  0  0  0  0  0
   -2.2271    1.0087   -2.0031 S   0  0  0  0  0  0  0  0  0  0  0  0
   -1.1521    0.6071    0.7517 O   0  0  0  0  0  0  0  0  0  0  0  0
   -1.2580    0.2276    2.1520 C   0  0  0  0  0  0  0  0  0  0  0  0
   -1.9566    1.3151    2.9392 C   0  0  0  0  0  0  0  0  0  0  0  0
   -3.5168   -0.0643    0.4724 O   0  0  0  0  0  0  0  0  0  0  0  0
   -4.7810   -0.2252   -0.1956 C   0  0  0  0  0  0  0  0  0  0  0  0
   -4.9153   -1.5905   -0.8374 C   0  0  0  0  0  0  0  0  0  0  0  0
    5.8022    1.3137   -1.0397 H   0  0  0  0  0  0  0  0  0  0  0  0
    6.1120   -0.1469   -0.0912 H   0  0  0  0  0  0  0  0  0  0  0  0
    6.2546   -0.1899   -1.8563 H   0  0  0  0  0  0  0  0  0  0  0  0
    4.1177   -1.2444   -1.1218 H   0  0  0  0  0  0  0  0  0  0  0  0
    3.7982    0.2342   -2.0670 H   0  0  0  0  0  0  0  0  0  0  0  0
    3.5360    1.6334    2.1878 H   0  0  0  0  0  0  0  0  0  0  0  0
    2.0808    1.9147    3.1849 H   0  0  0  0  0  0  0  0  0  0  0  0
    3.1480   -0.8310    2.3277 H   0  0  0  0  0  0  0  0  0  0  0  0
    3.3705   -0.1085    3.9277 H   0  0  0  0  0  0  0  0  0  0  0  0
    1.7525   -0.5600    3.3754 H   0  0  0  0  0  0  0  0  0  0  0  0
    0.4083   -2.6372   -1.6357 H   0  0  0  0  0  0  0  0  0  0  0  0
    0.1398   -0.8570   -1.7094 H   0  0  0  0  0  0  0  0  0  0  0  0
   -1.7880   -0.7254    2.2233 H   0  0  0  0  0  0  0  0  0  0  0  0
   -0.2267    0.1019    2.4826 H   0  0  0  0  0  0  0  0  0  0  0  0
   -2.9838    1.4252    2.6016 H   0  0  0  0  0  0  0  0  0  0  0  0
   -1.9497    1.0511    3.9921 H   0  0  0  0  0  0  0  0  0  0  0  0
   -1.4395    2.2610    2.7987 H   0  0  0  0  0  0  0  0  0  0  0  0
   -5.5147   -0.0780    0.5981 H   0  0  0  0  0  0  0  0  0  0  0  0
   -4.8770    0.5647   -0.9470 H   0  0  0  0  0  0  0  0  0  0  0  0
   -5.9253   -1.7106   -1.2159 H   0  0  0  0  0  0  0  0  0  0  0  0
   -4.2151   -1.6802   -1.6667 H   0  0  0  0  0  0  0  0  0  0  0  0
   -4.7035   -2.3733   -0.1135 H   0  0  0  0  0  0  0  0  0  0  0  0
  1  2  1  0  0  0  0
  2  3  1  0  0  0  0
  3  4  2  0  0  0  0
  4  5  2  0  0  0  0
  4  6  2  0  0  0  0
  6  7  1  0  0  0  0
  7  8  1  0  0  0  0
  4  9  1  0  0  0  0
  9 10  1  0  0  0  0
 10 11  1  0  0  0  0
 11 12  1  0  0  0  0
 12 13  2  0  0  0  0
 12 14  2  0  0  0  0
 14 15  1  0  0  0  0
 15 16  1  0  0  0  0
 12 17  2  0  0  0  0
 17 18  1  0  0  0  0
 18 19  1  0  0  0  0
  1 20  1  0  0  0  0
  1 21  1  0  0  0  0
  1 22  1  0  0  0  0
  2 23  1  0  0  0  0
  2 24  1  0  0  0  0
  7 25  1  0  0  0  0
  7 26  1  0  0  0  0
  8 27  1  0  0  0  0
  8 28  1  0  0  0  0
  8 29  1  0  0  0  0
 10 30  1  0  0  0  0
 10 31  1  0  0  0  0
 15 32  1  0  0  0  0
 15 33  1  0  0  0  0
 16 34  1  0  0  0  0
 16 35  1  0  0  0  0
 16 36  1  0  0  0  0
 18 37  1  0  0  0  0
 18 38  1  0  0  0  0
 19 39  1  0  0  0  0
 19 40  1  0  0  0  0
 19 41  1  0  0  0  0
M  END
