 xtb: 6.7.1 (edcfbbe)
          04092505203D

 41 40  0     0  0            999 V2000
    5.5060    0.5234   -0.5783 C   0  0  0  0  0  0  0  0  0  0  0  0
    4.8466   -0.8330   -0.7098 C   0  0  0  0  0  0  0  0  0  0  0  0
    3.6577   -0.9259    0.0997 O   0  0  0  0  0  0  0  0  0  0  0  0
    2.3454   -0.1057   -0.2317 P   0  0  0  0  0  0  0  0  0  0  0  0
    2.0242    0.1460   -2.1540 S   0  0  0  0  0  0  0  0  0  0  0  0
    2.5727    1.1764    0.6828 O   0  0  0  0  0  0  0  0  0  0  0  0
    1.6205    2.2301    0.8989 C   0  0  0  0  0  0  0  0  0  0  0  0
    1.6681    3.2632   -0.2093 C   0  0  0  0  0  0  0  0  0  0  0  0
    0.9490   -1.2546    0.8534 S   0  0  0  0  0  0  0  0  0  0  0  0
   -0.0700   -1.9071   -0.5206 C   0  0  0  0  0  0  0  0  0  0  0  0
   -1.8123   -1.9911   -0.0729 S   0  0  0  0  0  0  0  0  0  0  0  0
   -2.1498    0.1005    0.1900 P   0  0  0  0  0  0  0  0  0  0  0  0
   -1.3224    1.2993   -1.1137 S   0  0  0  0  0  0  0  0  0  0  0  0
   -1.6627    0.4237    1.6553 O   0  0  0  0  0  0  0  0  0  0  0  0
   -2.0943   -0.2986    2.8359 C   0  0  0  0  0  0  0  0  0  0  0  0
   -3.2525    0.4095    3.5078 C   0  0  0  0  0  0  0  0  0  0  0  0
   -3.7309    0.2012    0.3142 O   0  0  0  0  0  0  0  0  0  0  0  0
   -4.5930    0.3566   -0.8274 C   0  0  0  0  0  0  0  0  0  0  0  0
   -4.5796   -0.8584   -1.7318 C   0  0  0  0  0  0  0  0  0  0  0  0
    6.4394    0.5281   -1.1323 H   0  0  0  0  0  0  0  0  0  0  0  0
    4.8474    1.2903   -0.9848 H   0  0  0  0  0  0  0  0  0  0  0  0
    5.7007    0.7470    0.4673 H   0  0  0  0  0  0  0  0  0  0  0  0
    5.4824   -1.6348   -0.3326 H   0  0  0  0  0  0  0  0  0  0  0  0
    4.5725   -1.0297   -1.7513 H   0  0  0  0  0  0  0  0  0  0  0  0
    0.6157    1.8044    0.9884 H   0  0  0  0  0  0  0  0  0  0  0  0
    1.9174    2.6614    1.8569 H   0  0  0  0  0  0  0  0  0  0  0  0
    1.3429    2.8238   -1.1507 H   0  0  0  0  0  0  0  0  0  0  0  0
    0.9977    4.0804    0.0368 H   0  0  0  0  0  0  0  0  0  0  0  0
    2.6787    3.6448   -0.3260 H   0  0  0  0  0  0  0  0  0  0  0  0
    0.2375   -2.9258   -0.7426 H   0  0  0  0  0  0  0  0  0  0  0  0
    0.0636   -1.2539   -1.3885 H   0  0  0  0  0  0  0  0  0  0  0  0
   -2.3650   -1.3180    2.5478 H   0  0  0  0  0  0  0  0  0  0  0  0
   -1.2097   -0.3219    3.4752 H   0  0  0  0  0  0  0  0  0  0  0  0
   -2.9796    1.4357    3.7386 H   0  0  0  0  0  0  0  0  0  0  0  0
   -4.1209    0.4151    2.8547 H   0  0  0  0  0  0  0  0  0  0  0  0
   -3.4986   -0.1119    4.4275 H   0  0  0  0  0  0  0  0  0  0  0  0
   -5.5781    0.5197   -0.3878 H   0  0  0  0  0  0  0  0  0  0  0  0
   -4.2787    1.2493   -1.3768 H   0  0  0  0  0  0  0  0  0  0  0  0
   -3.6106   -0.9504   -2.2202 H   0  0  0  0  0  0  0  0  0  0  0  0
   -4.7695   -1.7612   -1.1570 H   0  0  0  0  0  0  0  0  0  0  0  0
   -5.3452   -0.7459   -2.4928 H   0  0  0  0  0  0  0  0  0  0  0  0
  1  2  1  0  0  0  0
  2  3  1  0  0  0  0
  3  4  2  0  0  0  0
  4  5  2  0  0  0  0
  4  6  2  0  0  0  0
  6  7  1  0  0  0  0
  7  8  1  0  0  0  0
  4  9  1  0  0  0  0
  9 10  1  0  0  0  0
 10 11  1  0  0  0  0
 11 12  1  0  0  0  0
 12 13  2  0  0  0  0
 12 14  2  0  0  0  0
 14 15  1  0  0  0  0
 15 16  1  0  0  0  0
 12 17  2  0  0  0  0
 17 18  1  0  0  0  0
 18 19  1  0  0  0  0
  1 20  1  0  0  0  0
  1 21  1  0  0  0  0
  1 22  1  0  0  0  0
  2 23  1  0  0  0  0
  2 24  1  0  0  0  0
  7 25  1  0  0  0  0
  7 26  1  0  0  0  0
  8 27  1  0  0  0  0
  8 28  1  0  0  0  0
  8 29  1  0  0  0  0
 10 30  1  0  0  0  0
 10 31  1  0  0  0  0
 15 32  1  0  0  0  0
 15 33  1  0  0  0  0
 16 34  1  0  0  0  0
 16 35  1  0  0  0  0
 16 36  1  0  0  0  0
 18 37  1  0  0  0  0
 18 38  1  0  0  0  0
 19 39  1  0  0  0  0
 19 40  1  0  0  0  0
 19 41  1  0  0  0  0
M  END
