 xtb: 6.7.1 (edcfbbe)
          04092507313D

 38 37  0     0  0            999 V2000
    5.5476   -2.1899   -1.4550 C   0  0  0  0  0  0  0  0  0  0  0  0
    4.9102   -1.0938   -0.6161 C   0  0  0  0  0  0  0  0  0  0  0  0
    3.6125   -1.4973   -0.1369 O   0  0  0  0  0  0  0  0  0  0  0  0
    2.5688   -1.3023   -0.9162 C   0  0  0  0  0  0  0  0  0  0  0  0
    2.6085   -0.7873   -2.0112 O   0  0  0  0  0  0  0  0  0  0  0  0
    1.2928   -1.8101   -0.2665 C   0  0  0  0  0  0  0  0  0  0  0  0
    0.2240   -0.7271   -0.3517 C   0  0  0  0  0  0  0  0  0  0  0  0
    0.1334   -0.3783   -1.3883 H   0  0  0  0  0  0  0  0  0  0  0  0
    0.5425    0.4792    0.5088 C   0  0  0  0  0  0  0  0  0  0  0  0
   -0.3070    1.0413    1.1706 O   0  0  0  0  0  0  0  0  0  0  0  0
    1.7951    0.8337    0.4296 O   0  0  0  0  0  0  0  0  0  0  0  0
    2.2365    1.9804    1.1924 C   0  0  0  0  0  0  0  0  0  0  0  0
    2.6334    1.5663    2.5993 C   0  0  0  0  0  0  0  0  0  0  0  0
   -1.3979   -1.3598    0.1822 S   0  0  0  0  0  0  0  0  0  0  0  0
   -2.5361    0.4193   -0.1291 P   0  0  0  0  0  0  0  0  0  0  0  0
   -1.8460    1.8263   -1.3040 S   0  0  0  0  0  0  0  0  0  0  0  0
   -3.8276   -0.1915   -0.8308 O   0  0  0  0  0  0  0  0  0  0  0  0
   -4.6243   -1.2310   -0.2365 C   0  0  0  0  0  0  0  0  0  0  0  0
   -3.1891    0.8467    1.2639 O   0  0  0  0  0  0  0  0  0  0  0  0
   -2.7527    1.8608    2.1681 C   0  0  0  0  0  0  0  0  0  0  0  0
    4.9609   -2.3609   -2.3547 H   0  0  0  0  0  0  0  0  0  0  0  0
    6.5491   -1.8861   -1.7412 H   0  0  0  0  0  0  0  0  0  0  0  0
    5.6017   -3.1137   -0.8857 H   0  0  0  0  0  0  0  0  0  0  0  0
    4.7943   -0.1767   -1.2003 H   0  0  0  0  0  0  0  0  0  0  0  0
    5.4875   -0.9010    0.2882 H   0  0  0  0  0  0  0  0  0  0  0  0
    1.4920   -2.0918    0.7662 H   0  0  0  0  0  0  0  0  0  0  0  0
    0.9485   -2.6861   -0.8190 H   0  0  0  0  0  0  0  0  0  0  0  0
    3.0881    2.3634    0.6302 H   0  0  0  0  0  0  0  0  0  0  0  0
    1.4297    2.7179    1.2068 H   0  0  0  0  0  0  0  0  0  0  0  0
    3.3883    0.7858    2.5598 H   0  0  0  0  0  0  0  0  0  0  0  0
    3.0343    2.4277    3.1229 H   0  0  0  0  0  0  0  0  0  0  0  0
    1.7668    1.1955    3.1414 H   0  0  0  0  0  0  0  0  0  0  0  0
   -3.9927   -2.0806    0.0257 H   0  0  0  0  0  0  0  0  0  0  0  0
   -5.3445   -1.5092   -1.0016 H   0  0  0  0  0  0  0  0  0  0  0  0
   -5.1276   -0.8502    0.6502 H   0  0  0  0  0  0  0  0  0  0  0  0
   -2.2751    2.6748    1.6231 H   0  0  0  0  0  0  0  0  0  0  0  0
   -2.0501    1.4372    2.8826 H   0  0  0  0  0  0  0  0  0  0  0  0
   -3.6534    2.2115    2.6674 H   0  0  0  0  0  0  0  0  0  0  0  0
  1  2  1  0  0  0  0
  2  3  1  0  0  0  0
  3  4  1  0  0  0  0
  4  5  2  0  0  0  0
  4  6  1  0  0  0  0
  6  7  1  0  0  0  0
  7  8  1  0  0  0  0
  7  9  1  0  0  0  0
  9 10  2  0  0  0  0
  9 11  4  0  0  0  0
 11 12  1  0  0  0  0
 12 13  1  0  0  0  0
  7 14  1  0  0  0  0
 14 15  1  0  0  0  0
 15 16  2  0  0  0  0
 15 17  1  0  0  0  0
 17 18  1  0  0  0  0
 15 19  2  0  0  0  0
 19 20  1  0  0  0  0
  1 21  1  0  0  0  0
  1 22  1  0  0  0  0
  1 23  1  0  0  0  0
  2 24  1  0  0  0  0
  2 25  1  0  0  0  0
  6 26  1  0  0  0  0
  6 27  1  0  0  0  0
 12 28  1  0  0  0  0
 12 29  1  0  0  0  0
 13 30  1  0  0  0  0
 13 31  1  0  0  0  0
 13 32  1  0  0  0  0
 18 33  1  0  0  0  0
 18 34  1  0  0  0  0
 18 35  1  0  0  0  0
 20 36  1  0  0  0  0
 20 37  1  0  0  0  0
 20 38  1  0  0  0  0
M  END
