 xtb: 6.7.1 (edcfbbe)
          04092505213D

 41 40  0     0  0            999 V2000
    3.7738    1.4655   -1.5313 C   0  0  0  0  0  0  0  0  0  0  0  0
    2.3427    1.6574   -1.0770 C   0  0  0  0  0  0  0  0  0  0  0  0
    1.6961    0.3932   -0.8558 O   0  0  0  0  0  0  0  0  0  0  0  0
    2.0248   -0.5367    0.3850 P   0  0  0  0  0  0  0  0  0  0  0  0
    2.6578    0.4340    1.9713 S   0  0  0  0  0  0  0  0  0  0  0  0
    3.0215   -1.5790   -0.2781 O   0  0  0  0  0  0  0  0  0  0  0  0
    3.2861   -2.9111    0.2024 C   0  0  0  0  0  0  0  0  0  0  0  0
    3.6332   -2.9516    1.6763 C   0  0  0  0  0  0  0  0  0  0  0  0
    0.2318   -1.6229    0.5863 S   0  0  0  0  0  0  0  0  0  0  0  0
   -0.5992   -0.4518    1.6945 C   0  0  0  0  0  0  0  0  0  0  0  0
   -0.8692    1.1845    0.9574 S   0  0  0  0  0  0  0  0  0  0  0  0
   -2.0002    0.6477   -0.7565 P   0  0  0  0  0  0  0  0  0  0  0  0
   -1.1630   -0.0452   -2.3790 S   0  0  0  0  0  0  0  0  0  0  0  0
   -2.7389    2.0051   -1.1033 O   0  0  0  0  0  0  0  0  0  0  0  0
   -3.5487    2.7473   -0.1564 C   0  0  0  0  0  0  0  0  0  0  0  0
   -2.8279    4.0076    0.2783 C   0  0  0  0  0  0  0  0  0  0  0  0
   -3.1027   -0.2965   -0.0872 O   0  0  0  0  0  0  0  0  0  0  0  0
   -3.5708   -1.5395   -0.6514 C   0  0  0  0  0  0  0  0  0  0  0  0
   -3.2621   -2.6903    0.2854 C   0  0  0  0  0  0  0  0  0  0  0  0
    4.3431    0.9750   -0.7419 H   0  0  0  0  0  0  0  0  0  0  0  0
    3.8018    0.8434   -2.4221 H   0  0  0  0  0  0  0  0  0  0  0  0
    4.2192    2.4316   -1.7460 H   0  0  0  0  0  0  0  0  0  0  0  0
    1.7295    2.1369   -1.8424 H   0  0  0  0  0  0  0  0  0  0  0  0
    2.3003    2.2389   -0.1491 H   0  0  0  0  0  0  0  0  0  0  0  0
    2.4064   -3.5266   -0.0067 H   0  0  0  0  0  0  0  0  0  0  0  0
    4.1227   -3.2431   -0.4150 H   0  0  0  0  0  0  0  0  0  0  0  0
    3.9061   -3.9649    1.9526 H   0  0  0  0  0  0  0  0  0  0  0  0
    4.4648   -2.2839    1.8895 H   0  0  0  0  0  0  0  0  0  0  0  0
    2.7779   -2.6387    2.2738 H   0  0  0  0  0  0  0  0  0  0  0  0
    0.0257   -0.2748    2.5705 H   0  0  0  0  0  0  0  0  0  0  0  0
   -1.5531   -0.8952    1.9679 H   0  0  0  0  0  0  0  0  0  0  0  0
   -4.4643    2.9842   -0.7009 H   0  0  0  0  0  0  0  0  0  0  0  0
   -3.7815    2.1056    0.6962 H   0  0  0  0  0  0  0  0  0  0  0  0
   -2.5671    4.6048   -0.5910 H   0  0  0  0  0  0  0  0  0  0  0  0
   -3.4793    4.5835    0.9279 H   0  0  0  0  0  0  0  0  0  0  0  0
   -1.9165    3.7582    0.8179 H   0  0  0  0  0  0  0  0  0  0  0  0
   -4.6472   -1.4150   -0.7849 H   0  0  0  0  0  0  0  0  0  0  0  0
   -3.0962   -1.6849   -1.6275 H   0  0  0  0  0  0  0  0  0  0  0  0
   -3.6920   -2.5036    1.2656 H   0  0  0  0  0  0  0  0  0  0  0  0
   -3.6922   -3.5985   -0.1239 H   0  0  0  0  0  0  0  0  0  0  0  0
   -2.1860   -2.8239    0.3827 H   0  0  0  0  0  0  0  0  0  0  0  0
  1  2  1  0  0  0  0
  2  3  1  0  0  0  0
  3  4  2  0  0  0  0
  4  5  2  0  0  0  0
  4  6  2  0  0  0  0
  6  7  1  0  0  0  0
  7  8  1  0  0  0  0
  4  9  1  0  0  0  0
  9 10  1  0  0  0  0
 10 11  1  0  0  0  0
 11 12  1  0  0  0  0
 12 13  2  0  0  0  0
 12 14  2  0  0  0  0
 14 15  1  0  0  0  0
 15 16  1  0  0  0  0
 12 17  2  0  0  0  0
 17 18  1  0  0  0  0
 18 19  1  0  0  0  0
  1 20  1  0  0  0  0
  1 21  1  0  0  0  0
  1 22  1  0  0  0  0
  2 23  1  0  0  0  0
  2 24  1  0  0  0  0
  7 25  1  0  0  0  0
  7 26  1  0  0  0  0
  8 27  1  0  0  0  0
  8 28  1  0  0  0  0
  8 29  1  0  0  0  0
 10 30  1  0  0  0  0
 10 31  1  0  0  0  0
 15 32  1  0  0  0  0
 15 33  1  0  0  0  0
 16 34  1  0  0  0  0
 16 35  1  0  0  0  0
 16 36  1  0  0  0  0
 18 37  1  0  0  0  0
 18 38  1  0  0  0  0
 19 39  1  0  0  0  0
 19 40  1  0  0  0  0
 19 41  1  0  0  0  0
M  END
