 xtb: 6.7.1 (edcfbbe)
          04092505213D

 41 40  0     0  0            999 V2000
    1.5711    2.8203    1.0187 C   0  0  0  0  0  0  0  0  0  0  0  0
    1.4833    2.3030   -0.4041 C   0  0  0  0  0  0  0  0  0  0  0  0
    1.1843    0.8925   -0.4486 O   0  0  0  0  0  0  0  0  0  0  0  0
    2.2695   -0.1493    0.0712 P   0  0  0  0  0  0  0  0  0  0  0  0
    4.1461    0.3810   -0.0963 S   0  0  0  0  0  0  0  0  0  0  0  0
    1.8310   -1.3720   -0.8353 O   0  0  0  0  0  0  0  0  0  0  0  0
    2.5448   -2.6232   -0.7615 C   0  0  0  0  0  0  0  0  0  0  0  0
    2.0223   -3.5139   -1.8696 C   0  0  0  0  0  0  0  0  0  0  0  0
    1.6430   -0.6845    2.0233 S   0  0  0  0  0  0  0  0  0  0  0  0
   -0.0958   -1.0999    1.6726 C   0  0  0  0  0  0  0  0  0  0  0  0
   -1.1952    0.3355    1.5760 S   0  0  0  0  0  0  0  0  0  0  0  0
   -1.8831    0.1801   -0.4434 P   0  0  0  0  0  0  0  0  0  0  0  0
   -1.2221   -1.3758   -1.4339 S   0  0  0  0  0  0  0  0  0  0  0  0
   -1.5825    1.5273   -1.2070 O   0  0  0  0  0  0  0  0  0  0  0  0
   -2.3690    2.7397   -1.0872 C   0  0  0  0  0  0  0  0  0  0  0  0
   -2.3080    3.3431    0.3002 C   0  0  0  0  0  0  0  0  0  0  0  0
   -3.4664    0.2926   -0.2815 O   0  0  0  0  0  0  0  0  0  0  0  0
   -4.2729   -0.5777    0.5298 C   0  0  0  0  0  0  0  0  0  0  0  0
   -4.5218   -1.9185   -0.1324 C   0  0  0  0  0  0  0  0  0  0  0  0
    2.4276    2.3693    1.5205 H   0  0  0  0  0  0  0  0  0  0  0  0
    1.7036    3.8975    1.0008 H   0  0  0  0  0  0  0  0  0  0  0  0
    0.6712    2.5729    1.5779 H   0  0  0  0  0  0  0  0  0  0  0  0
    2.4277    2.4716   -0.9308 H   0  0  0  0  0  0  0  0  0  0  0  0
    0.6647    2.7588   -0.9620 H   0  0  0  0  0  0  0  0  0  0  0  0
    3.6153   -2.4202   -0.8739 H   0  0  0  0  0  0  0  0  0  0  0  0
    2.3702   -3.0681    0.2238 H   0  0  0  0  0  0  0  0  0  0  0  0
    2.2439   -3.0737   -2.8374 H   0  0  0  0  0  0  0  0  0  0  0  0
    2.4917   -4.4891   -1.7977 H   0  0  0  0  0  0  0  0  0  0  0  0
    0.9438   -3.6179   -1.7791 H   0  0  0  0  0  0  0  0  0  0  0  0
   -0.4152   -1.7123    2.5113 H   0  0  0  0  0  0  0  0  0  0  0  0
   -0.1641   -1.6429    0.7245 H   0  0  0  0  0  0  0  0  0  0  0  0
   -1.9271    3.4006   -1.8350 H   0  0  0  0  0  0  0  0  0  0  0  0
   -3.3978    2.5059   -1.3660 H   0  0  0  0  0  0  0  0  0  0  0  0
   -1.2839    3.5805    0.5732 H   0  0  0  0  0  0  0  0  0  0  0  0
   -2.8983    4.2543    0.3128 H   0  0  0  0  0  0  0  0  0  0  0  0
   -2.7149    2.6487    1.0334 H   0  0  0  0  0  0  0  0  0  0  0  0
   -3.7880   -0.7028    1.5025 H   0  0  0  0  0  0  0  0  0  0  0  0
   -5.2053   -0.0239    0.6564 H   0  0  0  0  0  0  0  0  0  0  0  0
   -4.9662   -1.7757   -1.1139 H   0  0  0  0  0  0  0  0  0  0  0  0
   -3.5892   -2.4646   -0.2549 H   0  0  0  0  0  0  0  0  0  0  0  0
   -5.1973   -2.5015    0.4853 H   0  0  0  0  0  0  0  0  0  0  0  0
  1  2  1  0  0  0  0
  2  3  1  0  0  0  0
  3  4  1  0  0  0  0
  4  5  2  0  0  0  0
  4  6  2  0  0  0  0
  6  7  1  0  0  0  0
  7  8  1  0  0  0  0
  4  9  1  0  0  0  0
  9 10  1  0  0  0  0
 10 11  1  0  0  0  0
 11 12  1  0  0  0  0
 12 13  2  0  0  0  0
 12 14  2  0  0  0  0
 14 15  1  0  0  0  0
 15 16  1  0  0  0  0
 12 17  2  0  0  0  0
 17 18  1  0  0  0  0
 18 19  1  0  0  0  0
  1 20  1  0  0  0  0
  1 21  1  0  0  0  0
  1 22  1  0  0  0  0
  2 23  1  0  0  0  0
  2 24  1  0  0  0  0
  7 25  1  0  0  0  0
  7 26  1  0  0  0  0
  8 27  1  0  0  0  0
  8 28  1  0  0  0  0
  8 29  1  0  0  0  0
 10 30  1  0  0  0  0
 10 31  1  0  0  0  0
 15 32  1  0  0  0  0
 15 33  1  0  0  0  0
 16 34  1  0  0  0  0
 16 35  1  0  0  0  0
 16 36  1  0  0  0  0
 18 37  1  0  0  0  0
 18 38  1  0  0  0  0
 19 39  1  0  0  0  0
 19 40  1  0  0  0  0
 19 41  1  0  0  0  0
M  END
