 xtb: 6.7.1 (edcfbbe)
          04092505213D

 41 40  0     0  0            999 V2000
    2.7247    1.2371   -3.0938 C   0  0  0  0  0  0  0  0  0  0  0  0
    2.8918    1.2897   -1.5901 C   0  0  0  0  0  0  0  0  0  0  0  0
    2.5395   -0.0041   -1.0566 O   0  0  0  0  0  0  0  0  0  0  0  0
    2.1632   -0.2389    0.4630 P   0  0  0  0  0  0  0  0  0  0  0  0
    1.0974    1.2100    1.2563 S   0  0  0  0  0  0  0  0  0  0  0  0
    3.6011   -0.4375    1.1127 O   0  0  0  0  0  0  0  0  0  0  0  0
    3.8837   -1.1327    2.3429 C   0  0  0  0  0  0  0  0  0  0  0  0
    2.9453   -0.7564    3.4700 C   0  0  0  0  0  0  0  0  0  0  0  0
    1.4078   -2.2006    0.3670 S   0  0  0  0  0  0  0  0  0  0  0  0
   -0.1754   -1.8916   -0.4549 C   0  0  0  0  0  0  0  0  0  0  0  0
   -1.4239   -1.1595    0.6508 S   0  0  0  0  0  0  0  0  0  0  0  0
   -2.1032    0.3829   -0.6568 P   0  0  0  0  0  0  0  0  0  0  0  0
   -0.7971    1.0901   -1.9283 S   0  0  0  0  0  0  0  0  0  0  0  0
   -2.8843    1.3643    0.3138 O   0  0  0  0  0  0  0  0  0  0  0  0
   -2.3233    2.1890    1.3511 C   0  0  0  0  0  0  0  0  0  0  0  0
   -1.7784    3.4857    0.7887 C   0  0  0  0  0  0  0  0  0  0  0  0
   -3.2984   -0.2347   -1.4777 O   0  0  0  0  0  0  0  0  0  0  0  0
   -4.4572   -0.8677   -0.8769 C   0  0  0  0  0  0  0  0  0  0  0  0
   -4.3966   -2.3689   -1.0782 C   0  0  0  0  0  0  0  0  0  0  0  0
    1.6780    1.0800   -3.3438 H   0  0  0  0  0  0  0  0  0  0  0  0
    3.0536    2.1790   -3.5199 H   0  0  0  0  0  0  0  0  0  0  0  0
    3.3167    0.4245   -3.5044 H   0  0  0  0  0  0  0  0  0  0  0  0
    2.2345    2.0438   -1.1441 H   0  0  0  0  0  0  0  0  0  0  0  0
    3.9259    1.4974   -1.3050 H   0  0  0  0  0  0  0  0  0  0  0  0
    3.8310   -2.2053    2.1372 H   0  0  0  0  0  0  0  0  0  0  0  0
    4.9132   -0.8482    2.5683 H   0  0  0  0  0  0  0  0  0  0  0  0
    1.9263   -1.0563    3.2259 H   0  0  0  0  0  0  0  0  0  0  0  0
    3.2540   -1.2632    4.3786 H   0  0  0  0  0  0  0  0  0  0  0  0
    2.9582    0.3187    3.6342 H   0  0  0  0  0  0  0  0  0  0  0  0
   -0.5263   -2.8664   -0.7832 H   0  0  0  0  0  0  0  0  0  0  0  0
   -0.0215   -1.2152   -1.3001 H   0  0  0  0  0  0  0  0  0  0  0  0
   -3.1631    2.3692    2.0248 H   0  0  0  0  0  0  0  0  0  0  0  0
   -1.5391    1.6371    1.8750 H   0  0  0  0  0  0  0  0  0  0  0  0
   -2.5454    4.0027    0.2182 H   0  0  0  0  0  0  0  0  0  0  0  0
   -1.4433    4.1153    1.6062 H   0  0  0  0  0  0  0  0  0  0  0  0
   -0.9302    3.2827    0.1378 H   0  0  0  0  0  0  0  0  0  0  0  0
   -4.5003   -0.6078    0.1824 H   0  0  0  0  0  0  0  0  0  0  0  0
   -5.3110   -0.4309   -1.3970 H   0  0  0  0  0  0  0  0  0  0  0  0
   -3.5772   -2.7983   -0.5072 H   0  0  0  0  0  0  0  0  0  0  0  0
   -5.3300   -2.8082   -0.7408 H   0  0  0  0  0  0  0  0  0  0  0  0
   -4.2537   -2.5963   -2.1310 H   0  0  0  0  0  0  0  0  0  0  0  0
  1  2  1  0  0  0  0
  2  3  1  0  0  0  0
  3  4  2  0  0  0  0
  4  5  2  0  0  0  0
  4  6  2  0  0  0  0
  6  7  1  0  0  0  0
  7  8  1  0  0  0  0
  4  9  1  0  0  0  0
  9 10  1  0  0  0  0
 10 11  1  0  0  0  0
 11 12  1  0  0  0  0
 12 13  2  0  0  0  0
 12 14  2  0  0  0  0
 14 15  1  0  0  0  0
 15 16  1  0  0  0  0
 12 17  2  0  0  0  0
 17 18  1  0  0  0  0
 18 19  1  0  0  0  0
  1 20  1  0  0  0  0
  1 21  1  0  0  0  0
  1 22  1  0  0  0  0
  2 23  1  0  0  0  0
  2 24  1  0  0  0  0
  7 25  1  0  0  0  0
  7 26  1  0  0  0  0
  8 27  1  0  0  0  0
  8 28  1  0  0  0  0
  8 29  1  0  0  0  0
 10 30  1  0  0  0  0
 10 31  1  0  0  0  0
 15 32  1  0  0  0  0
 15 33  1  0  0  0  0
 16 34  1  0  0  0  0
 16 35  1  0  0  0  0
 16 36  1  0  0  0  0
 18 37  1  0  0  0  0
 18 38  1  0  0  0  0
 19 39  1  0  0  0  0
 19 40  1  0  0  0  0
 19 41  1  0  0  0  0
M  END
