 xtb: 6.7.1 (edcfbbe)
          04092505203D

 41 40  0     0  0            999 V2000
    3.3111    2.6604   -0.4124 C   0  0  0  0  0  0  0  0  0  0  0  0
    2.0712    1.8256   -0.6529 C   0  0  0  0  0  0  0  0  0  0  0  0
    1.6172    1.2261    0.5870 O   0  0  0  0  0  0  0  0  0  0  0  0
    1.9217   -0.2795    0.9467 P   0  0  0  0  0  0  0  0  0  0  0  0
    1.4386   -0.7524    2.7783 S   0  0  0  0  0  0  0  0  0  0  0  0
    3.4677   -0.4003    0.5986 O   0  0  0  0  0  0  0  0  0  0  0  0
    4.1886   -1.6234    0.8542 C   0  0  0  0  0  0  0  0  0  0  0  0
    5.6699   -1.3123    0.7877 C   0  0  0  0  0  0  0  0  0  0  0  0
    1.0257   -1.4396   -0.6100 S   0  0  0  0  0  0  0  0  0  0  0  0
   -0.4944   -1.8977    0.2667 C   0  0  0  0  0  0  0  0  0  0  0  0
   -1.4602   -0.4845    0.8430 S   0  0  0  0  0  0  0  0  0  0  0  0
   -2.0975    0.2878   -1.0499 P   0  0  0  0  0  0  0  0  0  0  0  0
   -1.9125   -0.9285   -2.5708 S   0  0  0  0  0  0  0  0  0  0  0  0
   -1.2907    1.6346   -1.2554 O   0  0  0  0  0  0  0  0  0  0  0  0
   -1.6424    2.9067   -0.6572 C   0  0  0  0  0  0  0  0  0  0  0  0
   -1.5185    2.8942    0.8522 C   0  0  0  0  0  0  0  0  0  0  0  0
   -3.5688    0.8319   -0.7869 O   0  0  0  0  0  0  0  0  0  0  0  0
   -4.7329    0.0039   -0.9562 C   0  0  0  0  0  0  0  0  0  0  0  0
   -4.7887   -1.1275    0.0493 C   0  0  0  0  0  0  0  0  0  0  0  0
    3.1113    3.4126    0.3457 H   0  0  0  0  0  0  0  0  0  0  0  0
    4.1277    2.0286   -0.0736 H   0  0  0  0  0  0  0  0  0  0  0  0
    3.5949    3.1487   -1.3394 H   0  0  0  0  0  0  0  0  0  0  0  0
    2.2567    1.0336   -1.3844 H   0  0  0  0  0  0  0  0  0  0  0  0
    1.2341    2.4368   -0.9935 H   0  0  0  0  0  0  0  0  0  0  0  0
    3.8998   -1.9960    1.8425 H   0  0  0  0  0  0  0  0  0  0  0  0
    3.8980   -2.3556    0.0958 H   0  0  0  0  0  0  0  0  0  0  0  0
    6.2321   -2.2228    0.9671 H   0  0  0  0  0  0  0  0  0  0  0  0
    5.9247   -0.9205   -0.1928 H   0  0  0  0  0  0  0  0  0  0  0  0
    5.9309   -0.5760    1.5426 H   0  0  0  0  0  0  0  0  0  0  0  0
   -0.2412   -2.4688    1.1585 H   0  0  0  0  0  0  0  0  0  0  0  0
   -1.0749   -2.4879   -0.4413 H   0  0  0  0  0  0  0  0  0  0  0  0
   -0.9396    3.6053   -1.1146 H   0  0  0  0  0  0  0  0  0  0  0  0
   -2.6603    3.1575   -0.9608 H   0  0  0  0  0  0  0  0  0  0  0  0
   -2.2565    2.2220    1.2867 H   0  0  0  0  0  0  0  0  0  0  0  0
   -0.5283    2.5610    1.1567 H   0  0  0  0  0  0  0  0  0  0  0  0
   -1.6884    3.8972    1.2310 H   0  0  0  0  0  0  0  0  0  0  0  0
   -5.5648    0.6978   -0.8276 H   0  0  0  0  0  0  0  0  0  0  0  0
   -4.7289   -0.3902   -1.9771 H   0  0  0  0  0  0  0  0  0  0  0  0
   -3.9892   -1.8401   -0.1481 H   0  0  0  0  0  0  0  0  0  0  0  0
   -4.6763   -0.7453    1.0608 H   0  0  0  0  0  0  0  0  0  0  0  0
   -5.7423   -1.6381   -0.0393 H   0  0  0  0  0  0  0  0  0  0  0  0
  1  2  1  0  0  0  0
  2  3  1  0  0  0  0
  3  4  2  0  0  0  0
  4  5  2  0  0  0  0
  4  6  2  0  0  0  0
  6  7  1  0  0  0  0
  7  8  1  0  0  0  0
  4  9  1  0  0  0  0
  9 10  1  0  0  0  0
 10 11  1  0  0  0  0
 11 12  1  0  0  0  0
 12 13  2  0  0  0  0
 12 14  2  0  0  0  0
 14 15  1  0  0  0  0
 15 16  1  0  0  0  0
 12 17  2  0  0  0  0
 17 18  1  0  0  0  0
 18 19  1  0  0  0  0
  1 20  1  0  0  0  0
  1 21  1  0  0  0  0
  1 22  1  0  0  0  0
  2 23  1  0  0  0  0
  2 24  1  0  0  0  0
  7 25  1  0  0  0  0
  7 26  1  0  0  0  0
  8 27  1  0  0  0  0
  8 28  1  0  0  0  0
  8 29  1  0  0  0  0
 10 30  1  0  0  0  0
 10 31  1  0  0  0  0
 15 32  1  0  0  0  0
 15 33  1  0  0  0  0
 16 34  1  0  0  0  0
 16 35  1  0  0  0  0
 16 36  1  0  0  0  0
 18 37  1  0  0  0  0
 18 38  1  0  0  0  0
 19 39  1  0  0  0  0
 19 40  1  0  0  0  0
 19 41  1  0  0  0  0
M  END
