 xtb: 6.7.1 (edcfbbe)
          04092505213D

 41 40  0     0  0            999 V2000
    5.3913   -0.1997   -0.8807 C   0  0  0  0  0  0  0  0  0  0  0  0
    4.2007   -1.0516   -1.2757 C   0  0  0  0  0  0  0  0  0  0  0  0
    3.1190   -0.8429   -0.3501 O   0  0  0  0  0  0  0  0  0  0  0  0
    1.8428    0.0589   -0.6899 P   0  0  0  0  0  0  0  0  0  0  0  0
    2.1969    1.4988   -1.9671 S   0  0  0  0  0  0  0  0  0  0  0  0
    1.3266    0.3736    0.7720 O   0  0  0  0  0  0  0  0  0  0  0  0
    2.1128    1.0970    1.7471 C   0  0  0  0  0  0  0  0  0  0  0  0
    1.9681    2.5945    1.5701 C   0  0  0  0  0  0  0  0  0  0  0  0
    0.3850   -1.3289   -1.3264 S   0  0  0  0  0  0  0  0  0  0  0  0
    0.1881   -2.3162    0.1803 C   0  0  0  0  0  0  0  0  0  0  0  0
   -0.7851   -1.5156    1.5054 S   0  0  0  0  0  0  0  0  0  0  0  0
   -2.0064   -0.1770    0.4270 P   0  0  0  0  0  0  0  0  0  0  0  0
   -1.3488    1.4943   -0.3906 S   0  0  0  0  0  0  0  0  0  0  0  0
   -3.1651    0.0954    1.4831 O   0  0  0  0  0  0  0  0  0  0  0  0
   -3.1243    1.1993    2.4021 C   0  0  0  0  0  0  0  0  0  0  0  0
   -1.9822    1.0663    3.3887 C   0  0  0  0  0  0  0  0  0  0  0  0
   -2.6821   -1.2174   -0.5578 O   0  0  0  0  0  0  0  0  0  0  0  0
   -3.3349   -0.8210   -1.7793 C   0  0  0  0  0  0  0  0  0  0  0  0
   -4.6309   -0.0874   -1.5056 C   0  0  0  0  0  0  0  0  0  0  0  0
    5.1325    0.8543   -0.9613 H   0  0  0  0  0  0  0  0  0  0  0  0
    5.6879   -0.4178    0.1415 H   0  0  0  0  0  0  0  0  0  0  0  0
    6.2200   -0.4112   -1.5486 H   0  0  0  0  0  0  0  0  0  0  0  0
    4.4308   -2.1167   -1.2175 H   0  0  0  0  0  0  0  0  0  0  0  0
    3.8661   -0.7987   -2.2856 H   0  0  0  0  0  0  0  0  0  0  0  0
    1.7049    0.7635    2.7038 H   0  0  0  0  0  0  0  0  0  0  0  0
    3.1560    0.7845    1.6606 H   0  0  0  0  0  0  0  0  0  0  0  0
    2.4743    3.1047    2.3832 H   0  0  0  0  0  0  0  0  0  0  0  0
    2.4017    2.9091    0.6227 H   0  0  0  0  0  0  0  0  0  0  0  0
    0.9162    2.8714    1.5675 H   0  0  0  0  0  0  0  0  0  0  0  0
    1.1651   -2.5425    0.6026 H   0  0  0  0  0  0  0  0  0  0  0  0
   -0.3302   -3.2203   -0.1306 H   0  0  0  0  0  0  0  0  0  0  0  0
   -3.0274    2.1252    1.8253 H   0  0  0  0  0  0  0  0  0  0  0  0
   -4.0961    1.1678    2.8961 H   0  0  0  0  0  0  0  0  0  0  0  0
   -2.0365    0.1106    3.9041 H   0  0  0  0  0  0  0  0  0  0  0  0
   -1.0339    1.1214    2.8534 H   0  0  0  0  0  0  0  0  0  0  0  0
   -2.0286    1.8748    4.1111 H   0  0  0  0  0  0  0  0  0  0  0  0
   -2.6455   -0.1943   -2.3554 H   0  0  0  0  0  0  0  0  0  0  0  0
   -3.5013   -1.7625   -2.3043 H   0  0  0  0  0  0  0  0  0  0  0  0
   -4.4201    0.8623   -1.0151 H   0  0  0  0  0  0  0  0  0  0  0  0
   -5.1416    0.1055   -2.4438 H   0  0  0  0  0  0  0  0  0  0  0  0
   -5.2687   -0.6834   -0.8584 H   0  0  0  0  0  0  0  0  0  0  0  0
  1  2  1  0  0  0  0
  2  3  1  0  0  0  0
  3  4  2  0  0  0  0
  4  5  2  0  0  0  0
  4  6  2  0  0  0  0
  6  7  1  0  0  0  0
  7  8  1  0  0  0  0
  4  9  1  0  0  0  0
  9 10  1  0  0  0  0
 10 11  1  0  0  0  0
 11 12  1  0  0  0  0
 12 13  2  0  0  0  0
 12 14  2  0  0  0  0
 14 15  1  0  0  0  0
 15 16  1  0  0  0  0
 12 17  2  0  0  0  0
 17 18  1  0  0  0  0
 18 19  1  0  0  0  0
  1 20  1  0  0  0  0
  1 21  1  0  0  0  0
  1 22  1  0  0  0  0
  2 23  1  0  0  0  0
  2 24  1  0  0  0  0
  7 25  1  0  0  0  0
  7 26  1  0  0  0  0
  8 27  1  0  0  0  0
  8 28  1  0  0  0  0
  8 29  1  0  0  0  0
 10 30  1  0  0  0  0
 10 31  1  0  0  0  0
 15 32  1  0  0  0  0
 15 33  1  0  0  0  0
 16 34  1  0  0  0  0
 16 35  1  0  0  0  0
 16 36  1  0  0  0  0
 18 37  1  0  0  0  0
 18 38  1  0  0  0  0
 19 39  1  0  0  0  0
 19 40  1  0  0  0  0
 19 41  1  0  0  0  0
M  END
