 xtb: 6.7.1 (edcfbbe)
          04092505203D

 41 40  0     0  0            999 V2000
    4.0474   -1.4725   -2.2721 C   0  0  0  0  0  0  0  0  0  0  0  0
    4.6244   -1.1663   -0.9057 C   0  0  0  0  0  0  0  0  0  0  0  0
    3.6097   -1.0795    0.1123 O   0  0  0  0  0  0  0  0  0  0  0  0
    2.5116    0.0684    0.1219 P   0  0  0  0  0  0  0  0  0  0  0  0
    3.1259    1.8450   -0.4283 S   0  0  0  0  0  0  0  0  0  0  0  0
    2.0291    0.0672    1.6252 O   0  0  0  0  0  0  0  0  0  0  0  0
    2.0450   -1.0662    2.5261 C   0  0  0  0  0  0  0  0  0  0  0  0
    1.1743   -2.2053    2.0407 C   0  0  0  0  0  0  0  0  0  0  0  0
    0.9034   -0.7071   -1.0526 S   0  0  0  0  0  0  0  0  0  0  0  0
    0.0745    0.8741   -1.3076 C   0  0  0  0  0  0  0  0  0  0  0  0
   -0.7003    1.5176    0.2038 S   0  0  0  0  0  0  0  0  0  0  0  0
   -2.4149    0.2950    0.1026 P   0  0  0  0  0  0  0  0  0  0  0  0
   -3.2369    0.0473   -1.6647 S   0  0  0  0  0  0  0  0  0  0  0  0
   -3.4086    0.8657    1.2061 O   0  0  0  0  0  0  0  0  0  0  0  0
   -4.3965    1.8668    0.9058 C   0  0  0  0  0  0  0  0  0  0  0  0
   -3.7677    3.2107    0.5993 C   0  0  0  0  0  0  0  0  0  0  0  0
   -1.8688   -1.0048    0.8247 O   0  0  0  0  0  0  0  0  0  0  0  0
   -2.5774   -2.2679    0.7553 C   0  0  0  0  0  0  0  0  0  0  0  0
   -1.9876   -3.1497   -0.3270 C   0  0  0  0  0  0  0  0  0  0  0  0
    4.8589   -1.6528   -2.9698 H   0  0  0  0  0  0  0  0  0  0  0  0
    3.4067   -2.3494   -2.2281 H   0  0  0  0  0  0  0  0  0  0  0  0
    3.4610   -0.6264   -2.6267 H   0  0  0  0  0  0  0  0  0  0  0  0
    5.1742   -0.2205   -0.9247 H   0  0  0  0  0  0  0  0  0  0  0  0
    5.2746   -1.9684   -0.5533 H   0  0  0  0  0  0  0  0  0  0  0  0
    3.0808   -1.3886    2.6491 H   0  0  0  0  0  0  0  0  0  0  0  0
    1.6718   -0.6439    3.4605 H   0  0  0  0  0  0  0  0  0  0  0  0
    0.1639   -1.8494    1.8550 H   0  0  0  0  0  0  0  0  0  0  0  0
    1.5790   -2.6203    1.1194 H   0  0  0  0  0  0  0  0  0  0  0  0
    1.1483   -2.9812    2.7995 H   0  0  0  0  0  0  0  0  0  0  0  0
   -0.6908    0.7207   -2.0694 H   0  0  0  0  0  0  0  0  0  0  0  0
    0.8073    1.6181   -1.6216 H   0  0  0  0  0  0  0  0  0  0  0  0
   -4.9935    1.5195    0.0563 H   0  0  0  0  0  0  0  0  0  0  0  0
   -5.0136    1.9048    1.8044 H   0  0  0  0  0  0  0  0  0  0  0  0
   -4.5476    3.9576    0.4911 H   0  0  0  0  0  0  0  0  0  0  0  0
   -3.0934    3.5045    1.4000 H   0  0  0  0  0  0  0  0  0  0  0  0
   -3.2015    3.1540   -0.3299 H   0  0  0  0  0  0  0  0  0  0  0  0
   -2.4542   -2.7089    1.7457 H   0  0  0  0  0  0  0  0  0  0  0  0
   -3.6373   -2.0747    0.5699 H   0  0  0  0  0  0  0  0  0  0  0  0
   -2.4807   -4.1161   -0.3069 H   0  0  0  0  0  0  0  0  0  0  0  0
   -2.1360   -2.6951   -1.3041 H   0  0  0  0  0  0  0  0  0  0  0  0
   -0.9216   -3.2820   -0.1664 H   0  0  0  0  0  0  0  0  0  0  0  0
  1  2  1  0  0  0  0
  2  3  1  0  0  0  0
  3  4  2  0  0  0  0
  4  5  2  0  0  0  0
  4  6  2  0  0  0  0
  6  7  1  0  0  0  0
  7  8  1  0  0  0  0
  4  9  1  0  0  0  0
  9 10  1  0  0  0  0
 10 11  1  0  0  0  0
 11 12  1  0  0  0  0
 12 13  2  0  0  0  0
 12 14  2  0  0  0  0
 14 15  1  0  0  0  0
 15 16  1  0  0  0  0
 12 17  2  0  0  0  0
 17 18  1  0  0  0  0
 18 19  1  0  0  0  0
  1 20  1  0  0  0  0
  1 21  1  0  0  0  0
  1 22  1  0  0  0  0
  2 23  1  0  0  0  0
  2 24  1  0  0  0  0
  7 25  1  0  0  0  0
  7 26  1  0  0  0  0
  8 27  1  0  0  0  0
  8 28  1  0  0  0  0
  8 29  1  0  0  0  0
 10 30  1  0  0  0  0
 10 31  1  0  0  0  0
 15 32  1  0  0  0  0
 15 33  1  0  0  0  0
 16 34  1  0  0  0  0
 16 35  1  0  0  0  0
 16 36  1  0  0  0  0
 18 37  1  0  0  0  0
 18 38  1  0  0  0  0
 19 39  1  0  0  0  0
 19 40  1  0  0  0  0
 19 41  1  0  0  0  0
M  END
