 xtb: 6.7.1 (edcfbbe)
          04092505213D

 41 40  0     0  0            999 V2000
    2.9440   -1.2248   -2.9732 C   0  0  0  0  0  0  0  0  0  0  0  0
    3.2285   -0.3235   -1.7893 C   0  0  0  0  0  0  0  0  0  0  0  0
    2.6586   -0.9299   -0.6070 O   0  0  0  0  0  0  0  0  0  0  0  0
    1.9484   -0.1295    0.5511 P   0  0  0  0  0  0  0  0  0  0  0  0
    1.2379    1.6556    0.0966 S   0  0  0  0  0  0  0  0  0  0  0  0
    3.1080   -0.0321    1.6359 O   0  0  0  0  0  0  0  0  0  0  0  0
    3.0538    0.8203    2.7955 C   0  0  0  0  0  0  0  0  0  0  0  0
    4.4675    1.2502    3.1341 C   0  0  0  0  0  0  0  0  0  0  0  0
    0.7540   -1.6398    1.3974 S   0  0  0  0  0  0  0  0  0  0  0  0
   -0.2729   -2.1816   -0.0237 C   0  0  0  0  0  0  0  0  0  0  0  0
   -0.4371   -0.9719   -1.3559 S   0  0  0  0  0  0  0  0  0  0  0  0
   -1.9310    0.2750   -0.5236 P   0  0  0  0  0  0  0  0  0  0  0  0
   -2.2678    1.9835   -1.4140 S   0  0  0  0  0  0  0  0  0  0  0  0
   -1.4719    0.2881    0.9933 O   0  0  0  0  0  0  0  0  0  0  0  0
   -1.8446    1.3479    1.8943 C   0  0  0  0  0  0  0  0  0  0  0  0
   -3.3330    1.3565    2.1667 C   0  0  0  0  0  0  0  0  0  0  0  0
   -3.2093   -0.6772   -0.4144 O   0  0  0  0  0  0  0  0  0  0  0  0
   -4.1916   -0.7617   -1.4576 C   0  0  0  0  0  0  0  0  0  0  0  0
   -3.6522   -1.4542   -2.6933 C   0  0  0  0  0  0  0  0  0  0  0  0
    1.8714   -1.3059   -3.1326 H   0  0  0  0  0  0  0  0  0  0  0  0
    3.4070   -0.8020   -3.8587 H   0  0  0  0  0  0  0  0  0  0  0  0
    3.3514   -2.2147   -2.7903 H   0  0  0  0  0  0  0  0  0  0  0  0
    2.7871    0.6701   -1.9250 H   0  0  0  0  0  0  0  0  0  0  0  0
    4.3008   -0.2196   -1.6108 H   0  0  0  0  0  0  0  0  0  0  0  0
    2.4194    1.6839    2.5669 H   0  0  0  0  0  0  0  0  0  0  0  0
    2.6060    0.2456    3.6102 H   0  0  0  0  0  0  0  0  0  0  0  0
    4.8873    1.8306    2.3170 H   0  0  0  0  0  0  0  0  0  0  0  0
    4.4489    1.8583    4.0325 H   0  0  0  0  0  0  0  0  0  0  0  0
    5.0892    0.3756    3.3017 H   0  0  0  0  0  0  0  0  0  0  0  0
   -1.2554   -2.4232    0.3768 H   0  0  0  0  0  0  0  0  0  0  0  0
    0.2038   -3.0518   -0.4686 H   0  0  0  0  0  0  0  0  0  0  0  0
   -1.2656    1.1355    2.7951 H   0  0  0  0  0  0  0  0  0  0  0  0
   -1.5153    2.2991    1.4626 H   0  0  0  0  0  0  0  0  0  0  0  0
   -3.6548    0.3807    2.5208 H   0  0  0  0  0  0  0  0  0  0  0  0
   -3.5549    2.1081    2.9177 H   0  0  0  0  0  0  0  0  0  0  0  0
   -3.8728    1.5995    1.2520 H   0  0  0  0  0  0  0  0  0  0  0  0
   -5.0109   -1.3215   -1.0046 H   0  0  0  0  0  0  0  0  0  0  0  0
   -4.5216    0.2529   -1.7029 H   0  0  0  0  0  0  0  0  0  0  0  0
   -2.8525   -0.8570   -3.1314 H   0  0  0  0  0  0  0  0  0  0  0  0
   -3.2599   -2.4359   -2.4416 H   0  0  0  0  0  0  0  0  0  0  0  0
   -4.4500   -1.5607   -3.4212 H   0  0  0  0  0  0  0  0  0  0  0  0
  1  2  1  0  0  0  0
  2  3  1  0  0  0  0
  3  4  2  0  0  0  0
  4  5  2  0  0  0  0
  4  6  2  0  0  0  0
  6  7  1  0  0  0  0
  7  8  1  0  0  0  0
  4  9  1  0  0  0  0
  9 10  1  0  0  0  0
 10 11  1  0  0  0  0
 11 12  1  0  0  0  0
 12 13  2  0  0  0  0
 12 14  2  0  0  0  0
 14 15  1  0  0  0  0
 15 16  1  0  0  0  0
 12 17  2  0  0  0  0
 17 18  1  0  0  0  0
 18 19  1  0  0  0  0
  1 20  1  0  0  0  0
  1 21  1  0  0  0  0
  1 22  1  0  0  0  0
  2 23  1  0  0  0  0
  2 24  1  0  0  0  0
  7 25  1  0  0  0  0
  7 26  1  0  0  0  0
  8 27  1  0  0  0  0
  8 28  1  0  0  0  0
  8 29  1  0  0  0  0
 10 30  1  0  0  0  0
 10 31  1  0  0  0  0
 15 32  1  0  0  0  0
 15 33  1  0  0  0  0
 16 34  1  0  0  0  0
 16 35  1  0  0  0  0
 16 36  1  0  0  0  0
 18 37  1  0  0  0  0
 18 38  1  0  0  0  0
 19 39  1  0  0  0  0
 19 40  1  0  0  0  0
 19 41  1  0  0  0  0
M  END
