 xtb: 6.7.1 (edcfbbe)
          04092505213D

 41 40  0     0  0            999 V2000
    5.2231    1.4553   -0.5431 C   0  0  0  0  0  0  0  0  0  0  0  0
    4.1062    0.8934   -1.4015 C   0  0  0  0  0  0  0  0  0  0  0  0
    3.3205   -0.0627   -0.6672 O   0  0  0  0  0  0  0  0  0  0  0  0
    1.9674    0.3532    0.0853 P   0  0  0  0  0  0  0  0  0  0  0  0
    2.1539    1.7920    1.4007 S   0  0  0  0  0  0  0  0  0  0  0  0
    1.5501   -1.0721    0.6274 O   0  0  0  0  0  0  0  0  0  0  0  0
    1.8304   -1.5081    1.9744 C   0  0  0  0  0  0  0  0  0  0  0  0
    0.7535   -2.4849    2.3998 C   0  0  0  0  0  0  0  0  0  0  0  0
    0.6310    0.7155   -1.5106 S   0  0  0  0  0  0  0  0  0  0  0  0
    0.2529   -0.9793   -1.9983 C   0  0  0  0  0  0  0  0  0  0  0  0
   -0.8781   -1.8979   -0.8747 S   0  0  0  0  0  0  0  0  0  0  0  0
   -2.0040   -0.4056    0.0803 P   0  0  0  0  0  0  0  0  0  0  0  0
   -3.5349   -1.1029    1.0823 S   0  0  0  0  0  0  0  0  0  0  0  0
   -2.3643    0.7025   -1.0074 O   0  0  0  0  0  0  0  0  0  0  0  0
   -3.5632    0.6372   -1.7978 C   0  0  0  0  0  0  0  0  0  0  0  0
   -3.3959   -0.2789   -2.9940 C   0  0  0  0  0  0  0  0  0  0  0  0
   -0.9048    0.3377    0.9661 O   0  0  0  0  0  0  0  0  0  0  0  0
   -1.2962    1.1126    2.1190 C   0  0  0  0  0  0  0  0  0  0  0  0
   -1.9868    2.4000    1.7254 C   0  0  0  0  0  0  0  0  0  0  0  0
    4.8117    2.0077    0.2988 H   0  0  0  0  0  0  0  0  0  0  0  0
    5.8420    0.6479   -0.1620 H   0  0  0  0  0  0  0  0  0  0  0  0
    5.8325    2.1244   -1.1419 H   0  0  0  0  0  0  0  0  0  0  0  0
    4.5041    0.3333   -2.2499 H   0  0  0  0  0  0  0  0  0  0  0  0
    3.4513    1.6919   -1.7661 H   0  0  0  0  0  0  0  0  0  0  0  0
    2.8137   -1.9841    1.9647 H   0  0  0  0  0  0  0  0  0  0  0  0
    1.8632   -0.6309    2.6300 H   0  0  0  0  0  0  0  0  0  0  0  0
    0.9730   -2.8422    3.4006 H   0  0  0  0  0  0  0  0  0  0  0  0
   -0.2222   -2.0027    2.4025 H   0  0  0  0  0  0  0  0  0  0  0  0
    0.7191   -3.3263    1.7131 H   0  0  0  0  0  0  0  0  0  0  0  0
    1.1654   -1.5704   -2.0355 H   0  0  0  0  0  0  0  0  0  0  0  0
   -0.2148   -0.9118   -2.9773 H   0  0  0  0  0  0  0  0  0  0  0  0
   -4.3846    0.2970   -1.1578 H   0  0  0  0  0  0  0  0  0  0  0  0
   -3.7361    1.6695   -2.1055 H   0  0  0  0  0  0  0  0  0  0  0  0
   -2.5598    0.0522   -3.6042 H   0  0  0  0  0  0  0  0  0  0  0  0
   -3.2200   -1.3014   -2.6629 H   0  0  0  0  0  0  0  0  0  0  0  0
   -4.3029   -0.2544   -3.5896 H   0  0  0  0  0  0  0  0  0  0  0  0
   -1.9484    0.4939    2.7443 H   0  0  0  0  0  0  0  0  0  0  0  0
   -0.3562    1.3090    2.6381 H   0  0  0  0  0  0  0  0  0  0  0  0
   -1.3601    2.9628    1.0375 H   0  0  0  0  0  0  0  0  0  0  0  0
   -2.9392    2.1814    1.2451 H   0  0  0  0  0  0  0  0  0  0  0  0
   -2.1656    2.9936    2.6164 H   0  0  0  0  0  0  0  0  0  0  0  0
  1  2  1  0  0  0  0
  2  3  1  0  0  0  0
  3  4  1  0  0  0  0
  4  5  2  0  0  0  0
  4  6  2  0  0  0  0
  6  7  1  0  0  0  0
  7  8  1  0  0  0  0
  4  9  1  0  0  0  0
  9 10  1  0  0  0  0
 10 11  1  0  0  0  0
 11 12  1  0  0  0  0
 12 13  2  0  0  0  0
 12 14  2  0  0  0  0
 14 15  1  0  0  0  0
 15 16  1  0  0  0  0
 12 17  1  0  0  0  0
 17 18  1  0  0  0  0
 18 19  1  0  0  0  0
  1 20  1  0  0  0  0
  1 21  1  0  0  0  0
  1 22  1  0  0  0  0
  2 23  1  0  0  0  0
  2 24  1  0  0  0  0
  7 25  1  0  0  0  0
  7 26  1  0  0  0  0
  8 27  1  0  0  0  0
  8 28  1  0  0  0  0
  8 29  1  0  0  0  0
 10 30  1  0  0  0  0
 10 31  1  0  0  0  0
 15 32  1  0  0  0  0
 15 33  1  0  0  0  0
 16 34  1  0  0  0  0
 16 35  1  0  0  0  0
 16 36  1  0  0  0  0
 18 37  1  0  0  0  0
 18 38  1  0  0  0  0
 19 39  1  0  0  0  0
 19 40  1  0  0  0  0
 19 41  1  0  0  0  0
M  END
