 xtb: 6.7.1 (edcfbbe)
          04092507313D

 38 37  0     0  0            999 V2000
    4.9469    0.3994   -1.0353 C   0  0  0  0  0  0  0  0  0  0  0  0
    4.5541   -1.0391   -1.3292 C   0  0  0  0  0  0  0  0  0  0  0  0
    3.1223   -1.2003   -1.3467 O   0  0  0  0  0  0  0  0  0  0  0  0
    2.4940   -1.3588   -0.1976 C   0  0  0  0  0  0  0  0  0  0  0  0
    3.0340   -1.3994    0.8833 O   0  0  0  0  0  0  0  0  0  0  0  0
    0.9979   -1.5288   -0.4063 C   0  0  0  0  0  0  0  0  0  0  0  0
    0.4158   -0.3411   -1.1772 C   0  0  0  0  0  0  0  0  0  0  0  0
    0.9423   -0.2228   -2.1271 H   0  0  0  0  0  0  0  0  0  0  0  0
    0.5338    0.9261   -0.3581 C   0  0  0  0  0  0  0  0  0  0  0  0
   -0.4383    1.5415    0.0379 O   0  0  0  0  0  0  0  0  0  0  0  0
    1.7733    1.2524   -0.1298 O   0  0  0  0  0  0  0  0  0  0  0  0
    2.0409    2.3301    0.7964 C   0  0  0  0  0  0  0  0  0  0  0  0
    2.0245    1.8049    2.2223 C   0  0  0  0  0  0  0  0  0  0  0  0
   -1.3383   -0.5861   -1.6064 S   0  0  0  0  0  0  0  0  0  0  0  0
   -2.3566   -0.0333    0.1761 P   0  0  0  0  0  0  0  0  0  0  0  0
   -1.5803   -0.3863    1.9541 S   0  0  0  0  0  0  0  0  0  0  0  0
   -3.1399    1.3262   -0.0576 O   0  0  0  0  0  0  0  0  0  0  0  0
   -2.9370    2.5428    0.6623 C   0  0  0  0  0  0  0  0  0  0  0  0
   -3.6686   -0.9306   -0.0563 O   0  0  0  0  0  0  0  0  0  0  0  0
   -3.6274   -2.3544    0.0544 C   0  0  0  0  0  0  0  0  0  0  0  0
    4.6406    0.6674   -0.0275 H   0  0  0  0  0  0  0  0  0  0  0  0
    6.0243    0.4998   -1.1162 H   0  0  0  0  0  0  0  0  0  0  0  0
    4.4682    1.0708   -1.7426 H   0  0  0  0  0  0  0  0  0  0  0  0
    4.9710   -1.7129   -0.5753 H   0  0  0  0  0  0  0  0  0  0  0  0
    4.8695   -1.3431   -2.3274 H   0  0  0  0  0  0  0  0  0  0  0  0
    0.5213   -1.6318    0.5709 H   0  0  0  0  0  0  0  0  0  0  0  0
    0.8309   -2.4358   -0.9889 H   0  0  0  0  0  0  0  0  0  0  0  0
    3.0288    2.6920    0.5126 H   0  0  0  0  0  0  0  0  0  0  0  0
    1.2896    3.1107    0.6547 H   0  0  0  0  0  0  0  0  0  0  0  0
    2.7116    0.9674    2.3210 H   0  0  0  0  0  0  0  0  0  0  0  0
    2.3173    2.5954    2.9046 H   0  0  0  0  0  0  0  0  0  0  0  0
    1.0272    1.4580    2.4885 H   0  0  0  0  0  0  0  0  0  0  0  0
   -2.4297    2.3480    1.6085 H   0  0  0  0  0  0  0  0  0  0  0  0
   -3.9277    2.9554    0.8419 H   0  0  0  0  0  0  0  0  0  0  0  0
   -2.3381    3.2205    0.0568 H   0  0  0  0  0  0  0  0  0  0  0  0
   -3.1102   -2.6455    0.9713 H   0  0  0  0  0  0  0  0  0  0  0  0
   -3.1238   -2.7854   -0.8113 H   0  0  0  0  0  0  0  0  0  0  0  0
   -4.6654   -2.6755    0.0897 H   0  0  0  0  0  0  0  0  0  0  0  0
  1  2  1  0  0  0  0
  2  3  1  0  0  0  0
  3  4  1  0  0  0  0
  4  5  2  0  0  0  0
  4  6  1  0  0  0  0
  6  7  1  0  0  0  0
  7  8  1  0  0  0  0
  7  9  1  0  0  0  0
  9 10  2  0  0  0  0
  9 11  4  0  0  0  0
 11 12  1  0  0  0  0
 12 13  1  0  0  0  0
  7 14  1  0  0  0  0
 14 15  1  0  0  0  0
 15 16  2  0  0  0  0
 15 17  2  0  0  0  0
 17 18  1  0  0  0  0
 15 19  1  0  0  0  0
 19 20  1  0  0  0  0
  1 21  1  0  0  0  0
  1 22  1  0  0  0  0
  1 23  1  0  0  0  0
  2 24  1  0  0  0  0
  2 25  1  0  0  0  0
  6 26  1  0  0  0  0
  6 27  1  0  0  0  0
 12 28  1  0  0  0  0
 12 29  1  0  0  0  0
 13 30  1  0  0  0  0
 13 31  1  0  0  0  0
 13 32  1  0  0  0  0
 18 33  1  0  0  0  0
 18 34  1  0  0  0  0
 18 35  1  0  0  0  0
 20 36  1  0  0  0  0
 20 37  1  0  0  0  0
 20 38  1  0  0  0  0
M  END
