 xtb: 6.7.1 (edcfbbe)
          04092507313D

 38 37  0     0  0            999 V2000
    1.4960   -3.8364    0.3142 C   0  0  0  0  0  0  0  0  0  0  0  0
    2.4634   -2.6675    0.3171 C   0  0  0  0  0  0  0  0  0  0  0  0
    2.1542   -1.8170   -0.8024 O   0  0  0  0  0  0  0  0  0  0  0  0
    2.2209   -0.5106   -0.6745 C   0  0  0  0  0  0  0  0  0  0  0  0
    2.5401    0.0836    0.3345 O   0  0  0  0  0  0  0  0  0  0  0  0
    1.8211    0.1926   -1.9602 C   0  0  0  0  0  0  0  0  0  0  0  0
    0.4682    0.8829   -1.7645 C   0  0  0  0  0  0  0  0  0  0  0  0
    0.2420    1.5039   -2.6355 H   0  0  0  0  0  0  0  0  0  0  0  0
    0.4641    1.7488   -0.5219 C   0  0  0  0  0  0  0  0  0  0  0  0
   -0.3629    1.6070    0.3625 O   0  0  0  0  0  0  0  0  0  0  0  0
    1.4101    2.6378   -0.5328 O   0  0  0  0  0  0  0  0  0  0  0  0
    1.5623    3.4988    0.6170 C   0  0  0  0  0  0  0  0  0  0  0  0
    0.6135    4.6832    0.5420 C   0  0  0  0  0  0  0  0  0  0  0  0
   -0.9015   -0.3142   -1.6567 S   0  0  0  0  0  0  0  0  0  0  0  0
   -1.3877   -0.5754    0.4126 P   0  0  0  0  0  0  0  0  0  0  0  0
   -0.1731   -0.8044    1.9360 S   0  0  0  0  0  0  0  0  0  0  0  0
   -2.7158    0.2883    0.6673 O   0  0  0  0  0  0  0  0  0  0  0  0
   -2.8380    1.4123    1.5346 C   0  0  0  0  0  0  0  0  0  0  0  0
   -2.0612   -2.0193    0.2334 O   0  0  0  0  0  0  0  0  0  0  0  0
   -3.1511   -2.3083   -0.6572 C   0  0  0  0  0  0  0  0  0  0  0  0
    1.7660   -4.5255    1.1071 H   0  0  0  0  0  0  0  0  0  0  0  0
    0.4821   -3.4814    0.4899 H   0  0  0  0  0  0  0  0  0  0  0  0
    1.5323   -4.3471   -0.6433 H   0  0  0  0  0  0  0  0  0  0  0  0
    3.4954   -3.0037    0.1865 H   0  0  0  0  0  0  0  0  0  0  0  0
    2.3824   -2.0809    1.2375 H   0  0  0  0  0  0  0  0  0  0  0  0
    1.7494   -0.5350   -2.7666 H   0  0  0  0  0  0  0  0  0  0  0  0
    2.5711    0.9523   -2.1845 H   0  0  0  0  0  0  0  0  0  0  0  0
    1.3899    2.9032    1.5177 H   0  0  0  0  0  0  0  0  0  0  0  0
    2.6042    3.8145    0.5711 H   0  0  0  0  0  0  0  0  0  0  0  0
    0.7671    5.2275   -0.3855 H   0  0  0  0  0  0  0  0  0  0  0  0
   -0.4188    4.3449    0.5921 H   0  0  0  0  0  0  0  0  0  0  0  0
    0.8053    5.3437    1.3808 H   0  0  0  0  0  0  0  0  0  0  0  0
   -2.0687    1.3807    2.3071 H   0  0  0  0  0  0  0  0  0  0  0  0
   -3.8276    1.3400    1.9812 H   0  0  0  0  0  0  0  0  0  0  0  0
   -2.7415    2.3292    0.9554 H   0  0  0  0  0  0  0  0  0  0  0  0
   -2.7994   -2.2998   -1.6886 H   0  0  0  0  0  0  0  0  0  0  0  0
   -3.9483   -1.5791   -0.5254 H   0  0  0  0  0  0  0  0  0  0  0  0
   -3.4896   -3.3026   -0.3763 H   0  0  0  0  0  0  0  0  0  0  0  0
  1  2  1  0  0  0  0
  2  3  1  0  0  0  0
  3  4  4  0  0  0  0
  4  5  2  0  0  0  0
  4  6  1  0  0  0  0
  6  7  1  0  0  0  0
  7  8  1  0  0  0  0
  7  9  1  0  0  0  0
  9 10  2  0  0  0  0
  9 11  4  0  0  0  0
 11 12  1  0  0  0  0
 12 13  1  0  0  0  0
  7 14  1  0  0  0  0
 14 15  1  0  0  0  0
 15 16  2  0  0  0  0
 15 17  1  0  0  0  0
 17 18  1  0  0  0  0
 15 19  1  0  0  0  0
 19 20  1  0  0  0  0
  1 21  1  0  0  0  0
  1 22  1  0  0  0  0
  1 23  1  0  0  0  0
  2 24  1  0  0  0  0
  2 25  1  0  0  0  0
  6 26  1  0  0  0  0
  6 27  1  0  0  0  0
 12 28  1  0  0  0  0
 12 29  1  0  0  0  0
 13 30  1  0  0  0  0
 13 31  1  0  0  0  0
 13 32  1  0  0  0  0
 18 33  1  0  0  0  0
 18 34  1  0  0  0  0
 18 35  1  0  0  0  0
 20 36  1  0  0  0  0
 20 37  1  0  0  0  0
 20 38  1  0  0  0  0
M  END
