 xtb: 6.7.1 (edcfbbe)
          04092505203D

 41 40  0     0  0            999 V2000
    3.4770    0.3830   -2.4572 C   0  0  0  0  0  0  0  0  0  0  0  0
    2.0552    0.7422   -2.0847 C   0  0  0  0  0  0  0  0  0  0  0  0
    1.4368   -0.2829   -1.2834 O   0  0  0  0  0  0  0  0  0  0  0  0
    1.9317   -0.6202    0.1800 P   0  0  0  0  0  0  0  0  0  0  0  0
    2.6102    0.8637    1.2744 S   0  0  0  0  0  0  0  0  0  0  0  0
    2.9651   -1.7896   -0.1340 O   0  0  0  0  0  0  0  0  0  0  0  0
    3.6985   -2.4717    0.9023 C   0  0  0  0  0  0  0  0  0  0  0  0
    5.0691   -1.8518    1.0951 C   0  0  0  0  0  0  0  0  0  0  0  0
    0.3252   -1.7067    0.9922 S   0  0  0  0  0  0  0  0  0  0  0  0
   -0.4442   -0.4464    2.0670 C   0  0  0  0  0  0  0  0  0  0  0  0
   -2.1641   -0.1251    1.6338 S   0  0  0  0  0  0  0  0  0  0  0  0
   -1.8178    0.7919   -0.2557 P   0  0  0  0  0  0  0  0  0  0  0  0
   -0.4550    2.1995   -0.1881 S   0  0  0  0  0  0  0  0  0  0  0  0
   -3.2672    1.2639   -0.6912 O   0  0  0  0  0  0  0  0  0  0  0  0
   -3.9348    2.3453   -0.0064 C   0  0  0  0  0  0  0  0  0  0  0  0
   -5.1069    2.7813   -0.8614 C   0  0  0  0  0  0  0  0  0  0  0  0
   -1.4758   -0.3049   -1.3295 O   0  0  0  0  0  0  0  0  0  0  0  0
   -2.4113   -1.2273   -1.9474 C   0  0  0  0  0  0  0  0  0  0  0  0
   -3.0425   -2.1783   -0.9529 C   0  0  0  0  0  0  0  0  0  0  0  0
    4.0949    0.3561   -1.5602 H   0  0  0  0  0  0  0  0  0  0  0  0
    3.5040   -0.5933   -2.9340 H   0  0  0  0  0  0  0  0  0  0  0  0
    3.8706    1.1333   -3.1357 H   0  0  0  0  0  0  0  0  0  0  0  0
    1.4050    0.8153   -2.9579 H   0  0  0  0  0  0  0  0  0  0  0  0
    2.0200    1.6856   -1.5288 H   0  0  0  0  0  0  0  0  0  0  0  0
    3.1223   -2.4436    1.8317 H   0  0  0  0  0  0  0  0  0  0  0  0
    3.7735   -3.5028    0.5519 H   0  0  0  0  0  0  0  0  0  0  0  0
    5.6155   -2.4186    1.8419 H   0  0  0  0  0  0  0  0  0  0  0  0
    5.6205   -1.8641    0.1591 H   0  0  0  0  0  0  0  0  0  0  0  0
    4.9715   -0.8224    1.4333 H   0  0  0  0  0  0  0  0  0  0  0  0
    0.1413    0.4752    1.9986 H   0  0  0  0  0  0  0  0  0  0  0  0
   -0.4540   -0.8304    3.0837 H   0  0  0  0  0  0  0  0  0  0  0  0
   -4.2635    1.9778    0.9690 H   0  0  0  0  0  0  0  0  0  0  0  0
   -3.2170    3.1588    0.1408 H   0  0  0  0  0  0  0  0  0  0  0  0
   -5.6296    3.5892   -0.3602 H   0  0  0  0  0  0  0  0  0  0  0  0
   -4.7554    3.1286   -1.8290 H   0  0  0  0  0  0  0  0  0  0  0  0
   -5.7889    1.9494   -1.0101 H   0  0  0  0  0  0  0  0  0  0  0  0
   -3.1690   -0.6401   -2.4687 H   0  0  0  0  0  0  0  0  0  0  0  0
   -1.7863   -1.7583   -2.6672 H   0  0  0  0  0  0  0  0  0  0  0  0
   -3.6217   -2.9182   -1.4967 H   0  0  0  0  0  0  0  0  0  0  0  0
   -2.2745   -2.6841   -0.3714 H   0  0  0  0  0  0  0  0  0  0  0  0
   -3.7023   -1.6414   -0.2749 H   0  0  0  0  0  0  0  0  0  0  0  0
  1  2  1  0  0  0  0
  2  3  1  0  0  0  0
  3  4  2  0  0  0  0
  4  5  2  0  0  0  0
  4  6  2  0  0  0  0
  6  7  1  0  0  0  0
  7  8  1  0  0  0  0
  4  9  1  0  0  0  0
  9 10  1  0  0  0  0
 10 11  1  0  0  0  0
 11 12  1  0  0  0  0
 12 13  2  0  0  0  0
 12 14  2  0  0  0  0
 14 15  1  0  0  0  0
 15 16  1  0  0  0  0
 12 17  2  0  0  0  0
 17 18  1  0  0  0  0
 18 19  1  0  0  0  0
  1 20  1  0  0  0  0
  1 21  1  0  0  0  0
  1 22  1  0  0  0  0
  2 23  1  0  0  0  0
  2 24  1  0  0  0  0
  7 25  1  0  0  0  0
  7 26  1  0  0  0  0
  8 27  1  0  0  0  0
  8 28  1  0  0  0  0
  8 29  1  0  0  0  0
 10 30  1  0  0  0  0
 10 31  1  0  0  0  0
 15 32  1  0  0  0  0
 15 33  1  0  0  0  0
 16 34  1  0  0  0  0
 16 35  1  0  0  0  0
 16 36  1  0  0  0  0
 18 37  1  0  0  0  0
 18 38  1  0  0  0  0
 19 39  1  0  0  0  0
 19 40  1  0  0  0  0
 19 41  1  0  0  0  0
M  END
