 xtb: 6.7.1 (edcfbbe)
          04092507313D

 38 37  0     0  0            999 V2000
    2.8918   -4.5257   -1.1724 C   0  0  0  0  0  0  0  0  0  0  0  0
    3.8970   -3.4003   -1.3590 C   0  0  0  0  0  0  0  0  0  0  0  0
    3.5558   -2.2744   -0.5277 O   0  0  0  0  0  0  0  0  0  0  0  0
    2.7144   -1.3777   -0.9991 C   0  0  0  0  0  0  0  0  0  0  0  0
    2.2302   -1.3977   -2.1087 O   0  0  0  0  0  0  0  0  0  0  0  0
    2.4419   -0.2897    0.0245 C   0  0  0  0  0  0  0  0  0  0  0  0
    1.0016    0.1833   -0.1056 C   0  0  0  0  0  0  0  0  0  0  0  0
    0.7781    0.3683   -1.1646 H   0  0  0  0  0  0  0  0  0  0  0  0
    0.6909    1.4492    0.6621 C   0  0  0  0  0  0  0  0  0  0  0  0
   -0.3485    1.5741    1.2843 O   0  0  0  0  0  0  0  0  0  0  0  0
    1.6176    2.3537    0.5592 O   0  0  0  0  0  0  0  0  0  0  0  0
    1.3730    3.6575    1.1380 C   0  0  0  0  0  0  0  0  0  0  0  0
    0.6030    4.5317    0.1625 C   0  0  0  0  0  0  0  0  0  0  0  0
   -0.1608   -1.1081    0.4832 S   0  0  0  0  0  0  0  0  0  0  0  0
   -1.9596   -0.0344    0.2368 P   0  0  0  0  0  0  0  0  0  0  0  0
   -2.1473    1.4243   -1.0734 S   0  0  0  0  0  0  0  0  0  0  0  0
   -2.7262   -1.3613   -0.2455 O   0  0  0  0  0  0  0  0  0  0  0  0
   -4.1107   -1.3289   -0.6045 C   0  0  0  0  0  0  0  0  0  0  0  0
   -2.7199    0.1767    1.6254 O   0  0  0  0  0  0  0  0  0  0  0  0
   -2.8959    1.4129    2.3180 C   0  0  0  0  0  0  0  0  0  0  0  0
    3.1930   -5.3812   -1.7679 H   0  0  0  0  0  0  0  0  0  0  0  0
    2.8425   -4.8137   -0.1261 H   0  0  0  0  0  0  0  0  0  0  0  0
    1.9044   -4.2002   -1.4929 H   0  0  0  0  0  0  0  0  0  0  0  0
    3.9215   -3.0711   -2.4016 H   0  0  0  0  0  0  0  0  0  0  0  0
    4.8925   -3.6954   -1.0275 H   0  0  0  0  0  0  0  0  0  0  0  0
    3.1089    0.5507   -0.1802 H   0  0  0  0  0  0  0  0  0  0  0  0
    2.6439   -0.6806    1.0205 H   0  0  0  0  0  0  0  0  0  0  0  0
    0.8179    3.5278    2.0700 H   0  0  0  0  0  0  0  0  0  0  0  0
    2.3684    4.0549    1.3335 H   0  0  0  0  0  0  0  0  0  0  0  0
    0.4353    5.5067    0.6074 H   0  0  0  0  0  0  0  0  0  0  0  0
    1.1628    4.6496   -0.7610 H   0  0  0  0  0  0  0  0  0  0  0  0
   -0.3597    4.0802   -0.0720 H   0  0  0  0  0  0  0  0  0  0  0  0
   -4.7266   -1.2358    0.2894 H   0  0  0  0  0  0  0  0  0  0  0  0
   -4.3056   -2.2720   -1.1087 H   0  0  0  0  0  0  0  0  0  0  0  0
   -4.3038   -0.4905   -1.2775 H   0  0  0  0  0  0  0  0  0  0  0  0
   -2.8830    2.2441    1.6118 H   0  0  0  0  0  0  0  0  0  0  0  0
   -2.0983    1.5368    3.0469 H   0  0  0  0  0  0  0  0  0  0  0  0
   -3.8643    1.3425    2.8086 H   0  0  0  0  0  0  0  0  0  0  0  0
  1  2  1  0  0  0  0
  2  3  1  0  0  0  0
  3  4  1  0  0  0  0
  4  5  2  0  0  0  0
  4  6  1  0  0  0  0
  6  7  1  0  0  0  0
  7  8  1  0  0  0  0
  7  9  1  0  0  0  0
  9 10  2  0  0  0  0
  9 11  4  0  0  0  0
 11 12  1  0  0  0  0
 12 13  1  0  0  0  0
  7 14  1  0  0  0  0
 14 15  1  0  0  0  0
 15 16  2  0  0  0  0
 15 17  1  0  0  0  0
 17 18  1  0  0  0  0
 15 19  2  0  0  0  0
 19 20  1  0  0  0  0
  1 21  1  0  0  0  0
  1 22  1  0  0  0  0
  1 23  1  0  0  0  0
  2 24  1  0  0  0  0
  2 25  1  0  0  0  0
  6 26  1  0  0  0  0
  6 27  1  0  0  0  0
 12 28  1  0  0  0  0
 12 29  1  0  0  0  0
 13 30  1  0  0  0  0
 13 31  1  0  0  0  0
 13 32  1  0  0  0  0
 18 33  1  0  0  0  0
 18 34  1  0  0  0  0
 18 35  1  0  0  0  0
 20 36  1  0  0  0  0
 20 37  1  0  0  0  0
 20 38  1  0  0  0  0
M  END
