 xtb: 6.7.1 (edcfbbe)
          04092507313D

 38 37  0     0  0            999 V2000
    3.5553   -0.9802    1.9789 C   0  0  0  0  0  0  0  0  0  0  0  0
    2.7860   -1.9446    1.0910 C   0  0  0  0  0  0  0  0  0  0  0  0
    2.5435   -1.3655   -0.2074 O   0  0  0  0  0  0  0  0  0  0  0  0
    1.5343   -0.5544   -0.3610 C   0  0  0  0  0  0  0  0  0  0  0  0
    0.7597   -0.2246    0.5273 O   0  0  0  0  0  0  0  0  0  0  0  0
    1.3956   -0.0259   -1.7660 C   0  0  0  0  0  0  0  0  0  0  0  0
    0.2699    0.9974   -1.7777 C   0  0  0  0  0  0  0  0  0  0  0  0
    0.2604    1.5595   -2.7151 H   0  0  0  0  0  0  0  0  0  0  0  0
    0.3876    1.9758   -0.6168 C   0  0  0  0  0  0  0  0  0  0  0  0
   -0.5507    2.4169    0.0048 O   0  0  0  0  0  0  0  0  0  0  0  0
    1.6439    2.3227   -0.4171 O   0  0  0  0  0  0  0  0  0  0  0  0
    1.9152    3.2533    0.6504 C   0  0  0  0  0  0  0  0  0  0  0  0
    3.3896    3.6010    0.6060 C   0  0  0  0  0  0  0  0  0  0  0  0
   -1.3932    0.2426   -1.7502 S   0  0  0  0  0  0  0  0  0  0  0  0
   -1.7400   -0.8000    0.0643 P   0  0  0  0  0  0  0  0  0  0  0  0
   -0.9401   -2.5638    0.4336 S   0  0  0  0  0  0  0  0  0  0  0  0
   -1.8974    0.2193    1.2644 O   0  0  0  0  0  0  0  0  0  0  0  0
   -1.2063    0.1572    2.5087 C   0  0  0  0  0  0  0  0  0  0  0  0
   -3.3184   -0.9804   -0.1719 O   0  0  0  0  0  0  0  0  0  0  0  0
   -3.8377   -1.8965   -1.1387 C   0  0  0  0  0  0  0  0  0  0  0  0
    2.9630   -0.0864    2.1638 H   0  0  0  0  0  0  0  0  0  0  0  0
    3.7685   -1.4610    2.9277 H   0  0  0  0  0  0  0  0  0  0  0  0
    4.4893   -0.6973    1.5013 H   0  0  0  0  0  0  0  0  0  0  0  0
    1.8249   -2.2170    1.5365 H   0  0  0  0  0  0  0  0  0  0  0  0
    3.3648   -2.8427    0.8781 H   0  0  0  0  0  0  0  0  0  0  0  0
    1.1778   -0.8525   -2.4445 H   0  0  0  0  0  0  0  0  0  0  0  0
    2.3394    0.4304   -2.0671 H   0  0  0  0  0  0  0  0  0  0  0  0
    1.2799    4.1332    0.5104 H   0  0  0  0  0  0  0  0  0  0  0  0
    1.6352    2.7767    1.5958 H   0  0  0  0  0  0  0  0  0  0  0  0
    3.6365    4.0512   -0.3505 H   0  0  0  0  0  0  0  0  0  0  0  0
    3.6134    4.3035    1.4016 H   0  0  0  0  0  0  0  0  0  0  0  0
    3.9897    2.7059    0.7400 H   0  0  0  0  0  0  0  0  0  0  0  0
   -0.7568   -0.8277    2.6490 H   0  0  0  0  0  0  0  0  0  0  0  0
   -1.9476    0.3523    3.2807 H   0  0  0  0  0  0  0  0  0  0  0  0
   -0.4319    0.9230    2.5155 H   0  0  0  0  0  0  0  0  0  0  0  0
   -3.7254   -1.4875   -2.1426 H   0  0  0  0  0  0  0  0  0  0  0  0
   -4.8891   -2.0187   -0.8902 H   0  0  0  0  0  0  0  0  0  0  0  0
   -3.3166   -2.8536   -1.0647 H   0  0  0  0  0  0  0  0  0  0  0  0
  1  2  1  0  0  0  0
  2  3  1  0  0  0  0
  3  4  4  0  0  0  0
  4  5  2  0  0  0  0
  4  6  1  0  0  0  0
  6  7  1  0  0  0  0
  7  8  1  0  0  0  0
  7  9  1  0  0  0  0
  9 10  2  0  0  0  0
  9 11  1  0  0  0  0
 11 12  1  0  0  0  0
 12 13  1  0  0  0  0
  7 14  1  0  0  0  0
 14 15  1  0  0  0  0
 15 16  2  0  0  0  0
 15 17  2  0  0  0  0
 17 18  1  0  0  0  0
 15 19  1  0  0  0  0
 19 20  1  0  0  0  0
  1 21  1  0  0  0  0
  1 22  1  0  0  0  0
  1 23  1  0  0  0  0
  2 24  1  0  0  0  0
  2 25  1  0  0  0  0
  6 26  1  0  0  0  0
  6 27  1  0  0  0  0
 12 28  1  0  0  0  0
 12 29  1  0  0  0  0
 13 30  1  0  0  0  0
 13 31  1  0  0  0  0
 13 32  1  0  0  0  0
 18 33  1  0  0  0  0
 18 34  1  0  0  0  0
 18 35  1  0  0  0  0
 20 36  1  0  0  0  0
 20 37  1  0  0  0  0
 20 38  1  0  0  0  0
M  END
