 xtb: 6.7.1 (edcfbbe)
          04092505203D

 41 40  0     0  0            999 V2000
    4.7084   -1.3910   -0.7338 C   0  0  0  0  0  0  0  0  0  0  0  0
    4.6598    0.0207   -0.1856 C   0  0  0  0  0  0  0  0  0  0  0  0
    3.4489    0.2804    0.5445 O   0  0  0  0  0  0  0  0  0  0  0  0
    2.0260    0.3764   -0.1614 P   0  0  0  0  0  0  0  0  0  0  0  0
    2.0555    1.2316   -1.9299 S   0  0  0  0  0  0  0  0  0  0  0  0
    1.1661    1.0672    0.9775 O   0  0  0  0  0  0  0  0  0  0  0  0
    1.0711    2.4961    1.1203 C   0  0  0  0  0  0  0  0  0  0  0  0
    2.3904    3.1211    1.5198 C   0  0  0  0  0  0  0  0  0  0  0  0
    1.3165   -1.5943   -0.0299 S   0  0  0  0  0  0  0  0  0  0  0  0
    0.0701   -1.6109   -1.3636 C   0  0  0  0  0  0  0  0  0  0  0  0
   -1.5969   -1.9556   -0.7615 S   0  0  0  0  0  0  0  0  0  0  0  0
   -2.0376   -0.0497    0.0702 P   0  0  0  0  0  0  0  0  0  0  0  0
   -1.4543    1.4703   -1.0168 S   0  0  0  0  0  0  0  0  0  0  0  0
   -1.4889    0.0116    1.5428 O   0  0  0  0  0  0  0  0  0  0  0  0
   -1.8778   -0.9141    2.5956 C   0  0  0  0  0  0  0  0  0  0  0  0
   -0.7762   -1.9210    2.8564 C   0  0  0  0  0  0  0  0  0  0  0  0
   -3.6048   -0.1490    0.3097 O   0  0  0  0  0  0  0  0  0  0  0  0
   -4.5317   -0.1502   -0.7960 C   0  0  0  0  0  0  0  0  0  0  0  0
   -5.9099    0.1559   -0.2463 C   0  0  0  0  0  0  0  0  0  0  0  0
    3.9591   -1.5120   -1.5147 H   0  0  0  0  0  0  0  0  0  0  0  0
    5.6903   -1.5764   -1.1573 H   0  0  0  0  0  0  0  0  0  0  0  0
    4.5120   -2.1107    0.0567 H   0  0  0  0  0  0  0  0  0  0  0  0
    4.7351    0.7497   -0.9990 H   0  0  0  0  0  0  0  0  0  0  0  0
    5.4487    0.1964    0.5470 H   0  0  0  0  0  0  0  0  0  0  0  0
    0.7089    2.9146    0.1749 H   0  0  0  0  0  0  0  0  0  0  0  0
    0.3054    2.6274    1.8869 H   0  0  0  0  0  0  0  0  0  0  0  0
    2.2357    4.1745    1.7321 H   0  0  0  0  0  0  0  0  0  0  0  0
    2.7884    2.6253    2.4013 H   0  0  0  0  0  0  0  0  0  0  0  0
    3.1075    3.0264    0.7053 H   0  0  0  0  0  0  0  0  0  0  0  0
    0.3187   -2.4218   -2.0430 H   0  0  0  0  0  0  0  0  0  0  0  0
    0.0870   -0.6451   -1.8762 H   0  0  0  0  0  0  0  0  0  0  0  0
   -2.0452   -0.2752    3.4640 H   0  0  0  0  0  0  0  0  0  0  0  0
   -2.8111   -1.4032    2.3128 H   0  0  0  0  0  0  0  0  0  0  0  0
    0.1664   -1.4066    3.0269 H   0  0  0  0  0  0  0  0  0  0  0  0
   -1.0317   -2.5015    3.7372 H   0  0  0  0  0  0  0  0  0  0  0  0
   -0.6544   -2.5939    2.0110 H   0  0  0  0  0  0  0  0  0  0  0  0
   -4.2102    0.6056   -1.5200 H   0  0  0  0  0  0  0  0  0  0  0  0
   -4.4969   -1.1359   -1.2672 H   0  0  0  0  0  0  0  0  0  0  0  0
   -6.6254    0.1545   -1.0619 H   0  0  0  0  0  0  0  0  0  0  0  0
   -6.1947   -0.5957    0.4840 H   0  0  0  0  0  0  0  0  0  0  0  0
   -5.9127    1.1315    0.2316 H   0  0  0  0  0  0  0  0  0  0  0  0
  1  2  1  0  0  0  0
  2  3  1  0  0  0  0
  3  4  2  0  0  0  0
  4  5  2  0  0  0  0
  4  6  2  0  0  0  0
  6  7  1  0  0  0  0
  7  8  1  0  0  0  0
  4  9  1  0  0  0  0
  9 10  1  0  0  0  0
 10 11  1  0  0  0  0
 11 12  1  0  0  0  0
 12 13  2  0  0  0  0
 12 14  2  0  0  0  0
 14 15  1  0  0  0  0
 15 16  1  0  0  0  0
 12 17  2  0  0  0  0
 17 18  1  0  0  0  0
 18 19  1  0  0  0  0
  1 20  1  0  0  0  0
  1 21  1  0  0  0  0
  1 22  1  0  0  0  0
  2 23  1  0  0  0  0
  2 24  1  0  0  0  0
  7 25  1  0  0  0  0
  7 26  1  0  0  0  0
  8 27  1  0  0  0  0
  8 28  1  0  0  0  0
  8 29  1  0  0  0  0
 10 30  1  0  0  0  0
 10 31  1  0  0  0  0
 15 32  1  0  0  0  0
 15 33  1  0  0  0  0
 16 34  1  0  0  0  0
 16 35  1  0  0  0  0
 16 36  1  0  0  0  0
 18 37  1  0  0  0  0
 18 38  1  0  0  0  0
 19 39  1  0  0  0  0
 19 40  1  0  0  0  0
 19 41  1  0  0  0  0
M  END
