 xtb: 6.7.1 (edcfbbe)
          04092505213D

 41 40  0     0  0            999 V2000
    5.9829   -0.1453    0.3627 C   0  0  0  0  0  0  0  0  0  0  0  0
    4.8281   -0.0989    1.3419 C   0  0  0  0  0  0  0  0  0  0  0  0
    3.8363   -1.1066    1.0182 O   0  0  0  0  0  0  0  0  0  0  0  0
    2.5358   -0.8161    0.1845 P   0  0  0  0  0  0  0  0  0  0  0  0
    1.4427   -2.4327    0.0672 S   0  0  0  0  0  0  0  0  0  0  0  0
    3.1380   -0.2070   -1.1581 O   0  0  0  0  0  0  0  0  0  0  0  0
    2.3770    0.4215   -2.2032 C   0  0  0  0  0  0  0  0  0  0  0  0
    1.6748   -0.5920   -3.0837 C   0  0  0  0  0  0  0  0  0  0  0  0
    1.6226    0.8587    1.1670 S   0  0  0  0  0  0  0  0  0  0  0  0
   -0.0777    0.2825    1.1051 C   0  0  0  0  0  0  0  0  0  0  0  0
   -0.8004    0.5989   -0.5474 S   0  0  0  0  0  0  0  0  0  0  0  0
   -2.8271    0.5124    0.0705 P   0  0  0  0  0  0  0  0  0  0  0  0
   -4.1874    0.7508   -1.3162 S   0  0  0  0  0  0  0  0  0  0  0  0
   -2.9038    1.5154    1.3024 O   0  0  0  0  0  0  0  0  0  0  0  0
   -3.2666    2.8970    1.1214 C   0  0  0  0  0  0  0  0  0  0  0  0
   -2.1911    3.6819    0.3957 C   0  0  0  0  0  0  0  0  0  0  0  0
   -2.9090   -0.8194    0.9352 O   0  0  0  0  0  0  0  0  0  0  0  0
   -3.3531   -2.0608    0.3600 C   0  0  0  0  0  0  0  0  0  0  0  0
   -2.4039   -2.5793   -0.7022 C   0  0  0  0  0  0  0  0  0  0  0  0
    5.6397    0.0948   -0.6397 H   0  0  0  0  0  0  0  0  0  0  0  0
    6.7355    0.5752    0.6675 H   0  0  0  0  0  0  0  0  0  0  0  0
    6.4213   -1.1395    0.3525 H   0  0  0  0  0  0  0  0  0  0  0  0
    4.3472    0.8830    1.3477 H   0  0  0  0  0  0  0  0  0  0  0  0
    5.1530   -0.3546    2.3519 H   0  0  0  0  0  0  0  0  0  0  0  0
    1.6534    1.1110   -1.7566 H   0  0  0  0  0  0  0  0  0  0  0  0
    3.1224    0.9857   -2.7668 H   0  0  0  0  0  0  0  0  0  0  0  0
    2.3917   -1.3014   -3.4885 H   0  0  0  0  0  0  0  0  0  0  0  0
    0.9284   -1.1385   -2.5114 H   0  0  0  0  0  0  0  0  0  0  0  0
    1.1789   -0.0740   -3.8980 H   0  0  0  0  0  0  0  0  0  0  0  0
   -0.6417    0.8339    1.8533 H   0  0  0  0  0  0  0  0  0  0  0  0
   -0.0965   -0.7915    1.2975 H   0  0  0  0  0  0  0  0  0  0  0  0
   -4.2101    2.9378    0.5682 H   0  0  0  0  0  0  0  0  0  0  0  0
   -3.4178    3.2625    2.1382 H   0  0  0  0  0  0  0  0  0  0  0  0
   -2.4728    4.7296    0.3677 H   0  0  0  0  0  0  0  0  0  0  0  0
   -1.2339    3.5825    0.9025 H   0  0  0  0  0  0  0  0  0  0  0  0
   -2.0904    3.3169   -0.6261 H   0  0  0  0  0  0  0  0  0  0  0  0
   -3.4126   -2.7386    1.2126 H   0  0  0  0  0  0  0  0  0  0  0  0
   -4.3503   -1.9073   -0.0646 H   0  0  0  0  0  0  0  0  0  0  0  0
   -1.3965   -2.6970   -0.3065 H   0  0  0  0  0  0  0  0  0  0  0  0
   -2.7553   -3.5430   -1.0564 H   0  0  0  0  0  0  0  0  0  0  0  0
   -2.3745   -1.8864   -1.5433 H   0  0  0  0  0  0  0  0  0  0  0  0
  1  2  1  0  0  0  0
  2  3  1  0  0  0  0
  3  4  2  0  0  0  0
  4  5  2  0  0  0  0
  4  6  2  0  0  0  0
  6  7  1  0  0  0  0
  7  8  1  0  0  0  0
  4  9  1  0  0  0  0
  9 10  1  0  0  0  0
 10 11  1  0  0  0  0
 11 12  1  0  0  0  0
 12 13  2  0  0  0  0
 12 14  2  0  0  0  0
 14 15  1  0  0  0  0
 15 16  1  0  0  0  0
 12 17  2  0  0  0  0
 17 18  1  0  0  0  0
 18 19  1  0  0  0  0
  1 20  1  0  0  0  0
  1 21  1  0  0  0  0
  1 22  1  0  0  0  0
  2 23  1  0  0  0  0
  2 24  1  0  0  0  0
  7 25  1  0  0  0  0
  7 26  1  0  0  0  0
  8 27  1  0  0  0  0
  8 28  1  0  0  0  0
  8 29  1  0  0  0  0
 10 30  1  0  0  0  0
 10 31  1  0  0  0  0
 15 32  1  0  0  0  0
 15 33  1  0  0  0  0
 16 34  1  0  0  0  0
 16 35  1  0  0  0  0
 16 36  1  0  0  0  0
 18 37  1  0  0  0  0
 18 38  1  0  0  0  0
 19 39  1  0  0  0  0
 19 40  1  0  0  0  0
 19 41  1  0  0  0  0
M  END
