 xtb: 6.7.1 (edcfbbe)
          04092505213D

 41 40  0     0  0            999 V2000
    5.5660    1.0011   -1.2141 C   0  0  0  0  0  0  0  0  0  0  0  0
    4.3180    1.3333   -0.4217 C   0  0  0  0  0  0  0  0  0  0  0  0
    3.3305    0.3177   -0.6979 O   0  0  0  0  0  0  0  0  0  0  0  0
    2.1194    0.0430    0.2894 P   0  0  0  0  0  0  0  0  0  0  0  0
    2.6114   -0.1334    2.1822 S   0  0  0  0  0  0  0  0  0  0  0  0
    1.4243   -1.2066   -0.3832 O   0  0  0  0  0  0  0  0  0  0  0  0
    1.6983   -2.5602    0.0258 C   0  0  0  0  0  0  0  0  0  0  0  0
    3.1110   -2.9734   -0.3259 C   0  0  0  0  0  0  0  0  0  0  0  0
    0.7582    1.5757   -0.1824 S   0  0  0  0  0  0  0  0  0  0  0  0
   -0.2747    1.4103    1.3028 C   0  0  0  0  0  0  0  0  0  0  0  0
   -1.0671   -0.2149    1.4534 S   0  0  0  0  0  0  0  0  0  0  0  0
   -2.1700   -0.2686   -0.3661 P   0  0  0  0  0  0  0  0  0  0  0  0
   -1.3399   -0.7627   -2.0623 S   0  0  0  0  0  0  0  0  0  0  0  0
   -2.8865    1.1578   -0.3294 O   0  0  0  0  0  0  0  0  0  0  0  0
   -2.9863    2.0558   -1.4554 C   0  0  0  0  0  0  0  0  0  0  0  0
   -2.2726    3.3590   -1.1571 C   0  0  0  0  0  0  0  0  0  0  0  0
   -3.2902   -1.3266   -0.0045 O   0  0  0  0  0  0  0  0  0  0  0  0
   -4.1942   -1.1741    1.1212 C   0  0  0  0  0  0  0  0  0  0  0  0
   -5.4915   -1.8746    0.7731 C   0  0  0  0  0  0  0  0  0  0  0  0
    6.3068    1.7771   -1.0514 H   0  0  0  0  0  0  0  0  0  0  0  0
    5.9717    0.0454   -0.8943 H   0  0  0  0  0  0  0  0  0  0  0  0
    5.3275    0.9454   -2.2723 H   0  0  0  0  0  0  0  0  0  0  0  0
    3.9021    2.2996   -0.7188 H   0  0  0  0  0  0  0  0  0  0  0  0
    4.5162    1.3427    0.6556 H   0  0  0  0  0  0  0  0  0  0  0  0
    1.5242   -2.6367    1.1047 H   0  0  0  0  0  0  0  0  0  0  0  0
    0.9526   -3.1483   -0.5121 H   0  0  0  0  0  0  0  0  0  0  0  0
    3.2514   -4.0219   -0.0827 H   0  0  0  0  0  0  0  0  0  0  0  0
    3.2921   -2.8169   -1.3862 H   0  0  0  0  0  0  0  0  0  0  0  0
    3.8207   -2.3767    0.2466 H   0  0  0  0  0  0  0  0  0  0  0  0
   -1.0327    2.1876    1.2533 H   0  0  0  0  0  0  0  0  0  0  0  0
    0.3486    1.5158    2.1910 H   0  0  0  0  0  0  0  0  0  0  0  0
   -2.5631    1.5643   -2.3376 H   0  0  0  0  0  0  0  0  0  0  0  0
   -4.0555    2.2170   -1.6062 H   0  0  0  0  0  0  0  0  0  0  0  0
   -2.6579    3.7982   -0.2410 H   0  0  0  0  0  0  0  0  0  0  0  0
   -1.2013    3.1937   -1.0563 H   0  0  0  0  0  0  0  0  0  0  0  0
   -2.4444    4.0461   -1.9792 H   0  0  0  0  0  0  0  0  0  0  0  0
   -3.7142   -1.6281    1.9911 H   0  0  0  0  0  0  0  0  0  0  0  0
   -4.3507   -0.1092    1.3063 H   0  0  0  0  0  0  0  0  0  0  0  0
   -6.1706   -1.8051    1.6167 H   0  0  0  0  0  0  0  0  0  0  0  0
   -5.9478   -1.4111   -0.0970 H   0  0  0  0  0  0  0  0  0  0  0  0
   -5.2996   -2.9201    0.5498 H   0  0  0  0  0  0  0  0  0  0  0  0
  1  2  1  0  0  0  0
  2  3  1  0  0  0  0
  3  4  2  0  0  0  0
  4  5  2  0  0  0  0
  4  6  2  0  0  0  0
  6  7  1  0  0  0  0
  7  8  1  0  0  0  0
  4  9  1  0  0  0  0
  9 10  1  0  0  0  0
 10 11  1  0  0  0  0
 11 12  1  0  0  0  0
 12 13  2  0  0  0  0
 12 14  2  0  0  0  0
 14 15  1  0  0  0  0
 15 16  1  0  0  0  0
 12 17  2  0  0  0  0
 17 18  1  0  0  0  0
 18 19  1  0  0  0  0
  1 20  1  0  0  0  0
  1 21  1  0  0  0  0
  1 22  1  0  0  0  0
  2 23  1  0  0  0  0
  2 24  1  0  0  0  0
  7 25  1  0  0  0  0
  7 26  1  0  0  0  0
  8 27  1  0  0  0  0
  8 28  1  0  0  0  0
  8 29  1  0  0  0  0
 10 30  1  0  0  0  0
 10 31  1  0  0  0  0
 15 32  1  0  0  0  0
 15 33  1  0  0  0  0
 16 34  1  0  0  0  0
 16 35  1  0  0  0  0
 16 36  1  0  0  0  0
 18 37  1  0  0  0  0
 18 38  1  0  0  0  0
 19 39  1  0  0  0  0
 19 40  1  0  0  0  0
 19 41  1  0  0  0  0
M  END
