 xtb: 6.7.1 (edcfbbe)
          04092505203D

 41 40  0     0  0            999 V2000
    4.6095   -0.0345   -1.7804 C   0  0  0  0  0  0  0  0  0  0  0  0
    4.4033    1.0492   -0.7425 C   0  0  0  0  0  0  0  0  0  0  0  0
    3.4783    0.6546    0.2860 O   0  0  0  0  0  0  0  0  0  0  0  0
    1.9395    0.3860    0.0002 P   0  0  0  0  0  0  0  0  0  0  0  0
    1.0702    1.6125   -1.2600 S   0  0  0  0  0  0  0  0  0  0  0  0
    1.3105    0.5022    1.4439 O   0  0  0  0  0  0  0  0  0  0  0  0
    1.9541    0.1285    2.6904 C   0  0  0  0  0  0  0  0  0  0  0  0
    2.1314   -1.3692    2.8284 C   0  0  0  0  0  0  0  0  0  0  0  0
    1.8717   -1.6668   -0.5608 S   0  0  0  0  0  0  0  0  0  0  0  0
    0.1238   -1.7531   -0.9934 C   0  0  0  0  0  0  0  0  0  0  0  0
   -0.9754   -1.5031    0.4360 S   0  0  0  0  0  0  0  0  0  0  0  0
   -2.1747    0.1029   -0.2771 P   0  0  0  0  0  0  0  0  0  0  0  0
   -2.1978    0.3692   -2.2146 S   0  0  0  0  0  0  0  0  0  0  0  0
   -1.7484    1.4206    0.4749 O   0  0  0  0  0  0  0  0  0  0  0  0
   -1.7687    1.5395    1.9201 C   0  0  0  0  0  0  0  0  0  0  0  0
   -1.0402    2.8152    2.2858 C   0  0  0  0  0  0  0  0  0  0  0  0
   -3.5667   -0.1879    0.4416 O   0  0  0  0  0  0  0  0  0  0  0  0
   -4.2856   -1.4355    0.4172 C   0  0  0  0  0  0  0  0  0  0  0  0
   -4.5695   -1.9285   -0.9860 C   0  0  0  0  0  0  0  0  0  0  0  0
    4.8625   -0.9770   -1.3014 H   0  0  0  0  0  0  0  0  0  0  0  0
    3.6999   -0.1689   -2.3638 H   0  0  0  0  0  0  0  0  0  0  0  0
    5.4130    0.2588   -2.4484 H   0  0  0  0  0  0  0  0  0  0  0  0
    4.0270    1.9635   -1.2116 H   0  0  0  0  0  0  0  0  0  0  0  0
    5.3221    1.2624   -0.1942 H   0  0  0  0  0  0  0  0  0  0  0  0
    2.9128    0.6461    2.7483 H   0  0  0  0  0  0  0  0  0  0  0  0
    1.2723    0.5219    3.4464 H   0  0  0  0  0  0  0  0  0  0  0  0
    2.4659   -1.5900    3.8372 H   0  0  0  0  0  0  0  0  0  0  0  0
    1.1894   -1.8814    2.6442 H   0  0  0  0  0  0  0  0  0  0  0  0
    2.8732   -1.7338    2.1218 H   0  0  0  0  0  0  0  0  0  0  0  0
   -0.0410   -2.7570   -1.3766 H   0  0  0  0  0  0  0  0  0  0  0  0
   -0.1203   -0.9984   -1.7475 H   0  0  0  0  0  0  0  0  0  0  0  0
   -2.8121    1.5636    2.2404 H   0  0  0  0  0  0  0  0  0  0  0  0
   -1.2768    0.6585    2.3432 H   0  0  0  0  0  0  0  0  0  0  0  0
   -0.0182    2.7759    1.9170 H   0  0  0  0  0  0  0  0  0  0  0  0
   -1.5361    3.6691    1.8328 H   0  0  0  0  0  0  0  0  0  0  0  0
   -1.0344    2.9290    3.3650 H   0  0  0  0  0  0  0  0  0  0  0  0
   -3.7045   -2.1735    0.9772 H   0  0  0  0  0  0  0  0  0  0  0  0
   -5.2088   -1.2059    0.9524 H   0  0  0  0  0  0  0  0  0  0  0  0
   -3.6388   -2.1638   -1.5000 H   0  0  0  0  0  0  0  0  0  0  0  0
   -5.1840   -2.8215   -0.9355 H   0  0  0  0  0  0  0  0  0  0  0  0
   -5.0886   -1.1641   -1.5593 H   0  0  0  0  0  0  0  0  0  0  0  0
  1  2  1  0  0  0  0
  2  3  1  0  0  0  0
  3  4  2  0  0  0  0
  4  5  2  0  0  0  0
  4  6  2  0  0  0  0
  6  7  1  0  0  0  0
  7  8  1  0  0  0  0
  4  9  1  0  0  0  0
  9 10  1  0  0  0  0
 10 11  1  0  0  0  0
 11 12  1  0  0  0  0
 12 13  2  0  0  0  0
 12 14  2  0  0  0  0
 14 15  1  0  0  0  0
 15 16  1  0  0  0  0
 12 17  2  0  0  0  0
 17 18  1  0  0  0  0
 18 19  1  0  0  0  0
  1 20  1  0  0  0  0
  1 21  1  0  0  0  0
  1 22  1  0  0  0  0
  2 23  1  0  0  0  0
  2 24  1  0  0  0  0
  7 25  1  0  0  0  0
  7 26  1  0  0  0  0
  8 27  1  0  0  0  0
  8 28  1  0  0  0  0
  8 29  1  0  0  0  0
 10 30  1  0  0  0  0
 10 31  1  0  0  0  0
 15 32  1  0  0  0  0
 15 33  1  0  0  0  0
 16 34  1  0  0  0  0
 16 35  1  0  0  0  0
 16 36  1  0  0  0  0
 18 37  1  0  0  0  0
 18 38  1  0  0  0  0
 19 39  1  0  0  0  0
 19 40  1  0  0  0  0
 19 41  1  0  0  0  0
M  END
