 xtb: 6.7.1 (edcfbbe)
          04092505213D

 41 40  0     0  0            999 V2000
    2.9526    0.1644   -3.3009 C   0  0  0  0  0  0  0  0  0  0  0  0
    3.3176    0.8066   -1.9773 C   0  0  0  0  0  0  0  0  0  0  0  0
    3.1099   -0.1345   -0.9042 O   0  0  0  0  0  0  0  0  0  0  0  0
    2.2002    0.0944    0.3671 P   0  0  0  0  0  0  0  0  0  0  0  0
    1.2325    1.8089    0.3561 S   0  0  0  0  0  0  0  0  0  0  0  0
    3.2908   -0.0185    1.5142 O   0  0  0  0  0  0  0  0  0  0  0  0
    3.0409   -0.4357    2.8684 C   0  0  0  0  0  0  0  0  0  0  0  0
    1.9289    0.3505    3.5323 C   0  0  0  0  0  0  0  0  0  0  0  0
    1.2133   -1.7764    0.5444 S   0  0  0  0  0  0  0  0  0  0  0  0
    0.4788   -1.9227   -1.1158 C   0  0  0  0  0  0  0  0  0  0  0  0
   -0.2937   -0.4098   -1.7524 S   0  0  0  0  0  0  0  0  0  0  0  0
   -1.8759   -0.1549   -0.3738 P   0  0  0  0  0  0  0  0  0  0  0  0
   -1.5967   -0.1357    1.5708 S   0  0  0  0  0  0  0  0  0  0  0  0
   -2.7792   -1.3501   -0.8870 O   0  0  0  0  0  0  0  0  0  0  0  0
   -3.8656   -1.8878   -0.1062 C   0  0  0  0  0  0  0  0  0  0  0  0
   -5.0318   -0.9252   -0.0366 C   0  0  0  0  0  0  0  0  0  0  0  0
   -2.5954    1.1220   -0.9809 O   0  0  0  0  0  0  0  0  0  0  0  0
   -2.3332    2.4801   -0.5723 C   0  0  0  0  0  0  0  0  0  0  0  0
   -3.3632    2.9371    0.4423 C   0  0  0  0  0  0  0  0  0  0  0  0
    3.5072   -0.7606   -3.4307 H   0  0  0  0  0  0  0  0  0  0  0  0
    1.8856   -0.0461   -3.3386 H   0  0  0  0  0  0  0  0  0  0  0  0
    3.2057    0.8489   -4.1039 H   0  0  0  0  0  0  0  0  0  0  0  0
    2.7150    1.7016   -1.7875 H   0  0  0  0  0  0  0  0  0  0  0  0
    4.3769    1.0687   -1.9419 H   0  0  0  0  0  0  0  0  0  0  0  0
    2.8058   -1.5041    2.8592 H   0  0  0  0  0  0  0  0  0  0  0  0
    3.9977   -0.2708    3.3672 H   0  0  0  0  0  0  0  0  0  0  0  0
    2.1331    1.4176    3.4778 H   0  0  0  0  0  0  0  0  0  0  0  0
    0.9763    0.1565    3.0375 H   0  0  0  0  0  0  0  0  0  0  0  0
    1.8458    0.0524    4.5724 H   0  0  0  0  0  0  0  0  0  0  0  0
   -0.2622   -2.7163   -1.0463 H   0  0  0  0  0  0  0  0  0  0  0  0
    1.2618   -2.1783   -1.8268 H   0  0  0  0  0  0  0  0  0  0  0  0
   -4.1301   -2.8099   -0.6253 H   0  0  0  0  0  0  0  0  0  0  0  0
   -3.4917   -2.1152    0.8976 H   0  0  0  0  0  0  0  0  0  0  0  0
   -5.8652   -1.4033    0.4685 H   0  0  0  0  0  0  0  0  0  0  0  0
   -4.7419   -0.0358    0.5209 H   0  0  0  0  0  0  0  0  0  0  0  0
   -5.3341   -0.6292   -1.0377 H   0  0  0  0  0  0  0  0  0  0  0  0
   -1.3220    2.5559   -0.1628 H   0  0  0  0  0  0  0  0  0  0  0  0
   -2.3937    3.0617   -1.4938 H   0  0  0  0  0  0  0  0  0  0  0  0
   -3.2748    2.3509    1.3549 H   0  0  0  0  0  0  0  0  0  0  0  0
   -3.1871    3.9814    0.6789 H   0  0  0  0  0  0  0  0  0  0  0  0
   -4.3653    2.8214    0.0382 H   0  0  0  0  0  0  0  0  0  0  0  0
  1  2  1  0  0  0  0
  2  3  1  0  0  0  0
  3  4  2  0  0  0  0
  4  5  2  0  0  0  0
  4  6  2  0  0  0  0
  6  7  1  0  0  0  0
  7  8  1  0  0  0  0
  4  9  1  0  0  0  0
  9 10  1  0  0  0  0
 10 11  1  0  0  0  0
 11 12  1  0  0  0  0
 12 13  2  0  0  0  0
 12 14  2  0  0  0  0
 14 15  1  0  0  0  0
 15 16  1  0  0  0  0
 12 17  2  0  0  0  0
 17 18  1  0  0  0  0
 18 19  1  0  0  0  0
  1 20  1  0  0  0  0
  1 21  1  0  0  0  0
  1 22  1  0  0  0  0
  2 23  1  0  0  0  0
  2 24  1  0  0  0  0
  7 25  1  0  0  0  0
  7 26  1  0  0  0  0
  8 27  1  0  0  0  0
  8 28  1  0  0  0  0
  8 29  1  0  0  0  0
 10 30  1  0  0  0  0
 10 31  1  0  0  0  0
 15 32  1  0  0  0  0
 15 33  1  0  0  0  0
 16 34  1  0  0  0  0
 16 35  1  0  0  0  0
 16 36  1  0  0  0  0
 18 37  1  0  0  0  0
 18 38  1  0  0  0  0
 19 39  1  0  0  0  0
 19 40  1  0  0  0  0
 19 41  1  0  0  0  0
M  END
