 xtb: 6.7.1 (edcfbbe)
          04092507313D

 38 37  0     0  0            999 V2000
    4.2365   -3.9711   -0.7248 C   0  0  0  0  0  0  0  0  0  0  0  0
    2.8034   -3.5175   -0.5304 C   0  0  0  0  0  0  0  0  0  0  0  0
    2.7888   -2.0753   -0.5405 O   0  0  0  0  0  0  0  0  0  0  0  0
    1.6618   -1.4671   -0.2554 C   0  0  0  0  0  0  0  0  0  0  0  0
    0.6255   -2.0461    0.0047 O   0  0  0  0  0  0  0  0  0  0  0  0
    1.8145    0.0357   -0.2532 C   0  0  0  0  0  0  0  0  0  0  0  0
    0.7626    0.7714   -1.1030 C   0  0  0  0  0  0  0  0  0  0  0  0
    1.1822    1.0302   -2.0778 H   0  0  0  0  0  0  0  0  0  0  0  0
    0.3146    2.0437   -0.3983 C   0  0  0  0  0  0  0  0  0  0  0  0
   -0.8427    2.2686   -0.1148 O   0  0  0  0  0  0  0  0  0  0  0  0
    1.3177    2.8356   -0.1374 O   0  0  0  0  0  0  0  0  0  0  0  0
    1.0377    4.0601    0.5779 C   0  0  0  0  0  0  0  0  0  0  0  0
    2.3301    4.8442    0.6785 C   0  0  0  0  0  0  0  0  0  0  0  0
   -0.7465   -0.1566   -1.5325 S   0  0  0  0  0  0  0  0  0  0  0  0
   -1.6303   -0.3857    0.3904 P   0  0  0  0  0  0  0  0  0  0  0  0
   -0.7195    0.0862    2.0561 S   0  0  0  0  0  0  0  0  0  0  0  0
   -3.0904    0.2682    0.2269 O   0  0  0  0  0  0  0  0  0  0  0  0
   -3.4901    1.5881    0.5859 C   0  0  0  0  0  0  0  0  0  0  0  0
   -2.0816   -1.9049    0.4376 O   0  0  0  0  0  0  0  0  0  0  0  0
   -2.7589   -2.5611   -0.6445 C   0  0  0  0  0  0  0  0  0  0  0  0
    4.6193   -3.5963   -1.6690 H   0  0  0  0  0  0  0  0  0  0  0  0
    4.8594   -3.5954    0.0813 H   0  0  0  0  0  0  0  0  0  0  0  0
    4.2712   -5.0553   -0.7283 H   0  0  0  0  0  0  0  0  0  0  0  0
    2.3879   -3.8600    0.4226 H   0  0  0  0  0  0  0  0  0  0  0  0
    2.1517   -3.8699   -1.3356 H   0  0  0  0  0  0  0  0  0  0  0  0
    2.8161    0.2927   -0.5929 H   0  0  0  0  0  0  0  0  0  0  0  0
    1.7013    0.3347    0.7942 H   0  0  0  0  0  0  0  0  0  0  0  0
    0.2655    4.6084    0.0304 H   0  0  0  0  0  0  0  0  0  0  0  0
    0.6407    3.7927    1.5621 H   0  0  0  0  0  0  0  0  0  0  0  0
    2.7066    5.0715   -0.3140 H   0  0  0  0  0  0  0  0  0  0  0  0
    2.1441    5.7700    1.2124 H   0  0  0  0  0  0  0  0  0  0  0  0
    3.0759    4.2659    1.2147 H   0  0  0  0  0  0  0  0  0  0  0  0
   -2.9303    1.9276    1.4579 H   0  0  0  0  0  0  0  0  0  0  0  0
   -4.5513    1.5201    0.8153 H   0  0  0  0  0  0  0  0  0  0  0  0
   -3.3115    2.2668   -0.2458 H   0  0  0  0  0  0  0  0  0  0  0  0
   -3.6918   -2.0465   -0.8709 H   0  0  0  0  0  0  0  0  0  0  0  0
   -2.9477   -3.5704   -0.2879 H   0  0  0  0  0  0  0  0  0  0  0  0
   -2.1158   -2.5805   -1.5248 H   0  0  0  0  0  0  0  0  0  0  0  0
  1  2  1  0  0  0  0
  2  3  1  0  0  0  0
  3  4  4  0  0  0  0
  4  5  2  0  0  0  0
  4  6  1  0  0  0  0
  6  7  1  0  0  0  0
  7  8  1  0  0  0  0
  7  9  1  0  0  0  0
  9 10  2  0  0  0  0
  9 11  4  0  0  0  0
 11 12  1  0  0  0  0
 12 13  1  0  0  0  0
  7 14  1  0  0  0  0
 14 15  1  0  0  0  0
 15 16  2  0  0  0  0
 15 17  1  0  0  0  0
 17 18  1  0  0  0  0
 15 19  2  0  0  0  0
 19 20  1  0  0  0  0
  1 21  1  0  0  0  0
  1 22  1  0  0  0  0
  1 23  1  0  0  0  0
  2 24  1  0  0  0  0
  2 25  1  0  0  0  0
  6 26  1  0  0  0  0
  6 27  1  0  0  0  0
 12 28  1  0  0  0  0
 12 29  1  0  0  0  0
 13 30  1  0  0  0  0
 13 31  1  0  0  0  0
 13 32  1  0  0  0  0
 18 33  1  0  0  0  0
 18 34  1  0  0  0  0
 18 35  1  0  0  0  0
 20 36  1  0  0  0  0
 20 37  1  0  0  0  0
 20 38  1  0  0  0  0
M  END
