 xtb: 6.7.1 (edcfbbe)
          04092505213D

 41 40  0     0  0            999 V2000
    3.8395   -0.6509   -2.4975 C   0  0  0  0  0  0  0  0  0  0  0  0
    2.6225    0.2439   -2.3971 C   0  0  0  0  0  0  0  0  0  0  0  0
    1.8541   -0.0327   -1.2119 O   0  0  0  0  0  0  0  0  0  0  0  0
    2.3726    0.3245    0.2424 P   0  0  0  0  0  0  0  0  0  0  0  0
    3.5192    1.9030    0.4058 S   0  0  0  0  0  0  0  0  0  0  0  0
    3.0519   -1.0557    0.6756 O   0  0  0  0  0  0  0  0  0  0  0  0
    3.9679   -1.1347    1.7803 C   0  0  0  0  0  0  0  0  0  0  0  0
    3.2709   -0.9430    3.1126 C   0  0  0  0  0  0  0  0  0  0  0  0
    0.5324    0.3841    1.2554 S   0  0  0  0  0  0  0  0  0  0  0  0
   -0.1160   -1.2556    0.7360 C   0  0  0  0  0  0  0  0  0  0  0  0
   -1.9038   -1.3087    0.9236 S   0  0  0  0  0  0  0  0  0  0  0  0
   -2.3760    0.1094   -0.5980 P   0  0  0  0  0  0  0  0  0  0  0  0
   -1.2539    0.0775   -2.1981 S   0  0  0  0  0  0  0  0  0  0  0  0
   -2.3798    1.5264    0.0945 O   0  0  0  0  0  0  0  0  0  0  0  0
   -3.2122    1.8547    1.2397 C   0  0  0  0  0  0  0  0  0  0  0  0
   -2.3642    2.0011    2.4868 C   0  0  0  0  0  0  0  0  0  0  0  0
   -3.9308   -0.1297   -0.8428 O   0  0  0  0  0  0  0  0  0  0  0  0
   -4.4372   -1.0905   -1.7873 C   0  0  0  0  0  0  0  0  0  0  0  0
   -4.1095   -2.5168   -1.3963 C   0  0  0  0  0  0  0  0  0  0  0  0
    4.5336   -0.4199   -1.6902 H   0  0  0  0  0  0  0  0  0  0  0  0
    3.5460   -1.6948   -2.4253 H   0  0  0  0  0  0  0  0  0  0  0  0
    4.3329   -0.4779   -3.4486 H   0  0  0  0  0  0  0  0  0  0  0  0
    1.9124    0.0707   -3.2081 H   0  0  0  0  0  0  0  0  0  0  0  0
    2.9152    1.2987   -2.3819 H   0  0  0  0  0  0  0  0  0  0  0  0
    4.4053   -2.1299    1.6905 H   0  0  0  0  0  0  0  0  0  0  0  0
    4.7413   -0.3723    1.6423 H   0  0  0  0  0  0  0  0  0  0  0  0
    3.9910   -1.0697    3.9146 H   0  0  0  0  0  0  0  0  0  0  0  0
    2.8524    0.0616    3.1702 H   0  0  0  0  0  0  0  0  0  0  0  0
    2.4688   -1.6661    3.2341 H   0  0  0  0  0  0  0  0  0  0  0  0
    0.2943   -2.0301    1.3779 H   0  0  0  0  0  0  0  0  0  0  0  0
    0.1428   -1.4102   -0.3108 H   0  0  0  0  0  0  0  0  0  0  0  0
   -3.6884    2.7990    0.9712 H   0  0  0  0  0  0  0  0  0  0  0  0
   -3.9727    1.0810    1.3611 H   0  0  0  0  0  0  0  0  0  0  0  0
   -2.9909    2.3551    3.2991 H   0  0  0  0  0  0  0  0  0  0  0  0
   -1.9191    1.0493    2.7667 H   0  0  0  0  0  0  0  0  0  0  0  0
   -1.5630    2.7142    2.3125 H   0  0  0  0  0  0  0  0  0  0  0  0
   -5.5129   -0.9086   -1.7857 H   0  0  0  0  0  0  0  0  0  0  0  0
   -4.0218   -0.8556   -2.7720 H   0  0  0  0  0  0  0  0  0  0  0  0
   -4.4150   -2.7093   -0.3710 H   0  0  0  0  0  0  0  0  0  0  0  0
   -4.6306   -3.1967   -2.0626 H   0  0  0  0  0  0  0  0  0  0  0  0
   -3.0384   -2.6907   -1.4836 H   0  0  0  0  0  0  0  0  0  0  0  0
  1  2  1  0  0  0  0
  2  3  1  0  0  0  0
  3  4  2  0  0  0  0
  4  5  2  0  0  0  0
  4  6  2  0  0  0  0
  6  7  1  0  0  0  0
  7  8  1  0  0  0  0
  4  9  1  0  0  0  0
  9 10  1  0  0  0  0
 10 11  1  0  0  0  0
 11 12  1  0  0  0  0
 12 13  2  0  0  0  0
 12 14  2  0  0  0  0
 14 15  1  0  0  0  0
 15 16  1  0  0  0  0
 12 17  2  0  0  0  0
 17 18  1  0  0  0  0
 18 19  1  0  0  0  0
  1 20  1  0  0  0  0
  1 21  1  0  0  0  0
  1 22  1  0  0  0  0
  2 23  1  0  0  0  0
  2 24  1  0  0  0  0
  7 25  1  0  0  0  0
  7 26  1  0  0  0  0
  8 27  1  0  0  0  0
  8 28  1  0  0  0  0
  8 29  1  0  0  0  0
 10 30  1  0  0  0  0
 10 31  1  0  0  0  0
 15 32  1  0  0  0  0
 15 33  1  0  0  0  0
 16 34  1  0  0  0  0
 16 35  1  0  0  0  0
 16 36  1  0  0  0  0
 18 37  1  0  0  0  0
 18 38  1  0  0  0  0
 19 39  1  0  0  0  0
 19 40  1  0  0  0  0
 19 41  1  0  0  0  0
M  END
