 xtb: 6.7.1 (edcfbbe)
          04092505203D

 41 40  0     0  0            999 V2000
    4.3652   -1.5990   -1.1716 C   0  0  0  0  0  0  0  0  0  0  0  0
    4.6223   -0.1175   -0.9824 C   0  0  0  0  0  0  0  0  0  0  0  0
    3.6617    0.5009   -0.1121 O   0  0  0  0  0  0  0  0  0  0  0  0
    2.1152    0.6209   -0.4789 P   0  0  0  0  0  0  0  0  0  0  0  0
    1.7946    0.9983   -2.3714 S   0  0  0  0  0  0  0  0  0  0  0  0
    1.6713    1.7982    0.4702 O   0  0  0  0  0  0  0  0  0  0  0  0
    1.3821    1.6982    1.8819 C   0  0  0  0  0  0  0  0  0  0  0  0
    2.5478    1.1591    2.6819 C   0  0  0  0  0  0  0  0  0  0  0  0
    1.2613   -1.1662    0.3163 S   0  0  0  0  0  0  0  0  0  0  0  0
    0.2190   -1.6783   -1.0846 C   0  0  0  0  0  0  0  0  0  0  0  0
   -1.4503   -2.1349   -0.5663 S   0  0  0  0  0  0  0  0  0  0  0  0
   -2.0502   -0.2912    0.2858 P   0  0  0  0  0  0  0  0  0  0  0  0
   -1.3892    1.3279   -0.6242 S   0  0  0  0  0  0  0  0  0  0  0  0
   -1.5929   -0.4814    1.7918 O   0  0  0  0  0  0  0  0  0  0  0  0
   -2.3764   -0.1026    2.9476 C   0  0  0  0  0  0  0  0  0  0  0  0
   -2.5618    1.3981    3.0398 C   0  0  0  0  0  0  0  0  0  0  0  0
   -3.6290   -0.3992    0.4008 O   0  0  0  0  0  0  0  0  0  0  0  0
   -4.5075    0.0156   -0.6598 C   0  0  0  0  0  0  0  0  0  0  0  0
   -4.4253   -0.9020   -1.8620 C   0  0  0  0  0  0  0  0  0  0  0  0
    4.2715   -2.0951   -0.2090 H   0  0  0  0  0  0  0  0  0  0  0  0
    3.4460   -1.7431   -1.7380 H   0  0  0  0  0  0  0  0  0  0  0  0
    5.1895   -2.0367   -1.7253 H   0  0  0  0  0  0  0  0  0  0  0  0
    4.5972    0.4004   -1.9464 H   0  0  0  0  0  0  0  0  0  0  0  0
    5.5765    0.0662   -0.4866 H   0  0  0  0  0  0  0  0  0  0  0  0
    1.1372    2.7258    2.1564 H   0  0  0  0  0  0  0  0  0  0  0  0
    0.4989    1.0635    2.0026 H   0  0  0  0  0  0  0  0  0  0  0  0
    2.3029    1.2003    3.7387 H   0  0  0  0  0  0  0  0  0  0  0  0
    2.7463    0.1255    2.4027 H   0  0  0  0  0  0  0  0  0  0  0  0
    3.4381    1.7527    2.4920 H   0  0  0  0  0  0  0  0  0  0  0  0
    0.6433   -2.5733   -1.5333 H   0  0  0  0  0  0  0  0  0  0  0  0
    0.1841   -0.8557   -1.8052 H   0  0  0  0  0  0  0  0  0  0  0  0
   -3.3395   -0.6126    2.8927 H   0  0  0  0  0  0  0  0  0  0  0  0
   -1.7943   -0.4908    3.7846 H   0  0  0  0  0  0  0  0  0  0  0  0
   -1.6006    1.9010    3.1131 H   0  0  0  0  0  0  0  0  0  0  0  0
   -3.0741    1.7647    2.1508 H   0  0  0  0  0  0  0  0  0  0  0  0
   -3.1578    1.6345    3.9157 H   0  0  0  0  0  0  0  0  0  0  0  0
   -5.4973   -0.0082   -0.2018 H   0  0  0  0  0  0  0  0  0  0  0  0
   -4.2497    1.0419   -0.9410 H   0  0  0  0  0  0  0  0  0  0  0  0
   -4.5539   -1.9374   -1.5571 H   0  0  0  0  0  0  0  0  0  0  0  0
   -5.2014   -0.6341   -2.5716 H   0  0  0  0  0  0  0  0  0  0  0  0
   -3.4554   -0.7971   -2.3462 H   0  0  0  0  0  0  0  0  0  0  0  0
  1  2  1  0  0  0  0
  2  3  1  0  0  0  0
  3  4  2  0  0  0  0
  4  5  2  0  0  0  0
  4  6  2  0  0  0  0
  6  7  1  0  0  0  0
  7  8  1  0  0  0  0
  4  9  1  0  0  0  0
  9 10  1  0  0  0  0
 10 11  1  0  0  0  0
 11 12  1  0  0  0  0
 12 13  2  0  0  0  0
 12 14  2  0  0  0  0
 14 15  1  0  0  0  0
 15 16  1  0  0  0  0
 12 17  2  0  0  0  0
 17 18  1  0  0  0  0
 18 19  1  0  0  0  0
  1 20  1  0  0  0  0
  1 21  1  0  0  0  0
  1 22  1  0  0  0  0
  2 23  1  0  0  0  0
  2 24  1  0  0  0  0
  7 25  1  0  0  0  0
  7 26  1  0  0  0  0
  8 27  1  0  0  0  0
  8 28  1  0  0  0  0
  8 29  1  0  0  0  0
 10 30  1  0  0  0  0
 10 31  1  0  0  0  0
 15 32  1  0  0  0  0
 15 33  1  0  0  0  0
 16 34  1  0  0  0  0
 16 35  1  0  0  0  0
 16 36  1  0  0  0  0
 18 37  1  0  0  0  0
 18 38  1  0  0  0  0
 19 39  1  0  0  0  0
 19 40  1  0  0  0  0
 19 41  1  0  0  0  0
M  END
