 xtb: 6.7.1 (edcfbbe)
          04092507313D

 38 37  0     0  0            999 V2000
    1.4897   -3.7551    0.4168 C   0  0  0  0  0  0  0  0  0  0  0  0
    2.4164   -2.5543    0.4467 C   0  0  0  0  0  0  0  0  0  0  0  0
    2.1199   -1.7221   -0.6896 O   0  0  0  0  0  0  0  0  0  0  0  0
    2.1716   -0.4130   -0.5779 C   0  0  0  0  0  0  0  0  0  0  0  0
    2.4614    0.1969    0.4301 O   0  0  0  0  0  0  0  0  0  0  0  0
    1.7968    0.2664   -1.8842 C   0  0  0  0  0  0  0  0  0  0  0  0
    0.4077    0.8983   -1.7554 C   0  0  0  0  0  0  0  0  0  0  0  0
    0.1935    1.4981   -2.6443 H   0  0  0  0  0  0  0  0  0  0  0  0
    0.3114    1.7775   -0.5271 C   0  0  0  0  0  0  0  0  0  0  0  0
   -0.5577    1.6253    0.3155 O   0  0  0  0  0  0  0  0  0  0  0  0
    1.2245    2.6979   -0.4931 O   0  0  0  0  0  0  0  0  0  0  0  0
    1.2900    3.5469    0.6742 C   0  0  0  0  0  0  0  0  0  0  0  0
    2.4978    4.4479    0.5214 C   0  0  0  0  0  0  0  0  0  0  0  0
   -0.9138   -0.3550   -1.6911 S   0  0  0  0  0  0  0  0  0  0  0  0
   -1.4722   -0.6133    0.3603 P   0  0  0  0  0  0  0  0  0  0  0  0
   -0.3108   -0.7421    1.9360 S   0  0  0  0  0  0  0  0  0  0  0  0
   -2.8553    0.1787    0.5418 O   0  0  0  0  0  0  0  0  0  0  0  0
   -3.0769    1.3144    1.3739 C   0  0  0  0  0  0  0  0  0  0  0  0
   -2.0551   -2.0955    0.1830 O   0  0  0  0  0  0  0  0  0  0  0  0
   -3.0849   -2.4622   -0.7497 C   0  0  0  0  0  0  0  0  0  0  0  0
    0.4588   -3.4334    0.5530 H   0  0  0  0  0  0  0  0  0  0  0  0
    1.5780   -4.2695   -0.5354 H   0  0  0  0  0  0  0  0  0  0  0  0
    1.7536   -4.4304    1.2235 H   0  0  0  0  0  0  0  0  0  0  0  0
    3.4635   -2.8561    0.3574 H   0  0  0  0  0  0  0  0  0  0  0  0
    2.2820   -1.9651    1.3593 H   0  0  0  0  0  0  0  0  0  0  0  0
    1.7906   -0.4687   -2.6869 H   0  0  0  0  0  0  0  0  0  0  0  0
    2.5217    1.0567   -2.0826 H   0  0  0  0  0  0  0  0  0  0  0  0
    0.3577    4.1160    0.7360 H   0  0  0  0  0  0  0  0  0  0  0  0
    1.3680    2.9010    1.5543 H   0  0  0  0  0  0  0  0  0  0  0  0
    3.4011    3.8478    0.4687 H   0  0  0  0  0  0  0  0  0  0  0  0
    2.4101    5.0397   -0.3845 H   0  0  0  0  0  0  0  0  0  0  0  0
    2.5590    5.1089    1.3791 H   0  0  0  0  0  0  0  0  0  0  0  0
   -2.3498    1.3362    2.1866 H   0  0  0  0  0  0  0  0  0  0  0  0
   -4.0849    1.2030    1.7682 H   0  0  0  0  0  0  0  0  0  0  0  0
   -2.9909    2.2226    0.7798 H   0  0  0  0  0  0  0  0  0  0  0  0
   -3.3755   -3.4712   -0.4674 H   0  0  0  0  0  0  0  0  0  0  0  0
   -2.6885   -2.4467   -1.7646 H   0  0  0  0  0  0  0  0  0  0  0  0
   -3.9293   -1.7808   -0.6650 H   0  0  0  0  0  0  0  0  0  0  0  0
  1  2  1  0  0  0  0
  2  3  1  0  0  0  0
  3  4  4  0  0  0  0
  4  5  2  0  0  0  0
  4  6  1  0  0  0  0
  6  7  1  0  0  0  0
  7  8  1  0  0  0  0
  7  9  1  0  0  0  0
  9 10  2  0  0  0  0
  9 11  4  0  0  0  0
 11 12  1  0  0  0  0
 12 13  1  0  0  0  0
  7 14  1  0  0  0  0
 14 15  1  0  0  0  0
 15 16  2  0  0  0  0
 15 17  1  0  0  0  0
 17 18  1  0  0  0  0
 15 19  1  0  0  0  0
 19 20  1  0  0  0  0
  1 21  1  0  0  0  0
  1 22  1  0  0  0  0
  1 23  1  0  0  0  0
  2 24  1  0  0  0  0
  2 25  1  0  0  0  0
  6 26  1  0  0  0  0
  6 27  1  0  0  0  0
 12 28  1  0  0  0  0
 12 29  1  0  0  0  0
 13 30  1  0  0  0  0
 13 31  1  0  0  0  0
 13 32  1  0  0  0  0
 18 33  1  0  0  0  0
 18 34  1  0  0  0  0
 18 35  1  0  0  0  0
 20 36  1  0  0  0  0
 20 37  1  0  0  0  0
 20 38  1  0  0  0  0
M  END
