 xtb: 6.7.1 (edcfbbe)
          04092507313D

 38 37  0     0  0            999 V2000
    3.9783   -1.8428    1.2602 C   0  0  0  0  0  0  0  0  0  0  0  0
    2.8083   -2.2692    0.3959 C   0  0  0  0  0  0  0  0  0  0  0  0
    2.5774   -1.2375   -0.5829 O   0  0  0  0  0  0  0  0  0  0  0  0
    1.4099   -1.1729   -1.1795 C   0  0  0  0  0  0  0  0  0  0  0  0
    0.4829   -1.9324   -0.9758 O   0  0  0  0  0  0  0  0  0  0  0  0
    1.3380   -0.0171   -2.1564 C   0  0  0  0  0  0  0  0  0  0  0  0
    0.2744    0.9874   -1.7097 C   0  0  0  0  0  0  0  0  0  0  0  0
    0.1857    1.7803   -2.4589 H   0  0  0  0  0  0  0  0  0  0  0  0
    0.5805    1.6333   -0.3711 C   0  0  0  0  0  0  0  0  0  0  0  0
   -0.2899    1.8744    0.4433 O   0  0  0  0  0  0  0  0  0  0  0  0
    1.8507    1.8822   -0.2171 O   0  0  0  0  0  0  0  0  0  0  0  0
    2.2874    2.4800    1.0222 C   0  0  0  0  0  0  0  0  0  0  0  0
    2.1027    3.9877    0.9960 C   0  0  0  0  0  0  0  0  0  0  0  0
   -1.3990    0.2638   -1.6172 S   0  0  0  0  0  0  0  0  0  0  0  0
   -1.6557   -0.3027    0.4252 P   0  0  0  0  0  0  0  0  0  0  0  0
   -0.2739   -0.7521    1.7414 S   0  0  0  0  0  0  0  0  0  0  0  0
   -2.6759    0.7298    1.0591 O   0  0  0  0  0  0  0  0  0  0  0  0
   -3.8803    1.1643    0.4051 C   0  0  0  0  0  0  0  0  0  0  0  0
   -2.6826   -1.5214    0.1955 O   0  0  0  0  0  0  0  0  0  0  0  0
   -2.3000   -2.8221   -0.2479 C   0  0  0  0  0  0  0  0  0  0  0  0
    4.2130   -2.6381    1.9594 H   0  0  0  0  0  0  0  0  0  0  0  0
    4.8445   -1.6389    0.6383 H   0  0  0  0  0  0  0  0  0  0  0  0
    3.7182   -0.9477    1.8179 H   0  0  0  0  0  0  0  0  0  0  0  0
    1.8966   -2.3999    0.9869 H   0  0  0  0  0  0  0  0  0  0  0  0
    3.0205   -3.1974   -0.1430 H   0  0  0  0  0  0  0  0  0  0  0  0
    1.0548   -0.4092   -3.1338 H   0  0  0  0  0  0  0  0  0  0  0  0
    2.3093    0.4734   -2.2029 H   0  0  0  0  0  0  0  0  0  0  0  0
    1.7227    2.0269    1.8425 H   0  0  0  0  0  0  0  0  0  0  0  0
    3.3401    2.2057    1.0882 H   0  0  0  0  0  0  0  0  0  0  0  0
    2.6230    4.4142    0.1430 H   0  0  0  0  0  0  0  0  0  0  0  0
    1.0454    4.2353    0.9318 H   0  0  0  0  0  0  0  0  0  0  0  0
    2.5056    4.4104    1.9103 H   0  0  0  0  0  0  0  0  0  0  0  0
   -4.5437    0.3157    0.2456 H   0  0  0  0  0  0  0  0  0  0  0  0
   -3.6392    1.6368   -0.5473 H   0  0  0  0  0  0  0  0  0  0  0  0
   -4.3255    1.8828    1.0885 H   0  0  0  0  0  0  0  0  0  0  0  0
   -2.0119   -2.7908   -1.2979 H   0  0  0  0  0  0  0  0  0  0  0  0
   -3.1765   -3.4483   -0.1017 H   0  0  0  0  0  0  0  0  0  0  0  0
   -1.4595   -3.1889    0.3419 H   0  0  0  0  0  0  0  0  0  0  0  0
  1  2  1  0  0  0  0
  2  3  1  0  0  0  0
  3  4  4  0  0  0  0
  4  5  2  0  0  0  0
  4  6  1  0  0  0  0
  6  7  1  0  0  0  0
  7  8  1  0  0  0  0
  7  9  1  0  0  0  0
  9 10  2  0  0  0  0
  9 11  4  0  0  0  0
 11 12  1  0  0  0  0
 12 13  1  0  0  0  0
  7 14  1  0  0  0  0
 14 15  1  0  0  0  0
 15 16  2  0  0  0  0
 15 17  2  0  0  0  0
 17 18  1  0  0  0  0
 15 19  1  0  0  0  0
 19 20  1  0  0  0  0
  1 21  1  0  0  0  0
  1 22  1  0  0  0  0
  1 23  1  0  0  0  0
  2 24  1  0  0  0  0
  2 25  1  0  0  0  0
  6 26  1  0  0  0  0
  6 27  1  0  0  0  0
 12 28  1  0  0  0  0
 12 29  1  0  0  0  0
 13 30  1  0  0  0  0
 13 31  1  0  0  0  0
 13 32  1  0  0  0  0
 18 33  1  0  0  0  0
 18 34  1  0  0  0  0
 18 35  1  0  0  0  0
 20 36  1  0  0  0  0
 20 37  1  0  0  0  0
 20 38  1  0  0  0  0
M  END
