 xtb: 6.7.1 (edcfbbe)
          04092505203D

 41 40  0     0  0            999 V2000
    0.4454   -1.6450    2.7947 C   0  0  0  0  0  0  0  0  0  0  0  0
    1.5729   -0.6394    2.6727 C   0  0  0  0  0  0  0  0  0  0  0  0
    1.3912    0.1831    1.4963 O   0  0  0  0  0  0  0  0  0  0  0  0
    2.2460    0.0164    0.1784 P   0  0  0  0  0  0  0  0  0  0  0  0
    2.9615   -1.7736   -0.1911 S   0  0  0  0  0  0  0  0  0  0  0  0
    3.3225    1.1675    0.4001 O   0  0  0  0  0  0  0  0  0  0  0  0
    4.3718    1.4396   -0.5524 C   0  0  0  0  0  0  0  0  0  0  0  0
    5.6492    0.7174   -0.1697 C   0  0  0  0  0  0  0  0  0  0  0  0
    0.9852    0.8581   -1.2917 S   0  0  0  0  0  0  0  0  0  0  0  0
    0.2312   -0.6871   -1.8744 C   0  0  0  0  0  0  0  0  0  0  0  0
   -0.7300   -1.5322   -0.5944 S   0  0  0  0  0  0  0  0  0  0  0  0
   -2.1113    0.0329   -0.2334 P   0  0  0  0  0  0  0  0  0  0  0  0
   -2.6644    1.0533   -1.8181 S   0  0  0  0  0  0  0  0  0  0  0  0
   -1.4176    0.8633    0.9194 O   0  0  0  0  0  0  0  0  0  0  0  0
   -1.5068    2.2964    1.0086 C   0  0  0  0  0  0  0  0  0  0  0  0
   -2.8473    2.7176    1.5726 C   0  0  0  0  0  0  0  0  0  0  0  0
   -3.2380   -0.7000    0.6108 O   0  0  0  0  0  0  0  0  0  0  0  0
   -4.0928   -1.7273    0.0702 C   0  0  0  0  0  0  0  0  0  0  0  0
   -5.3295   -1.1340   -0.5769 C   0  0  0  0  0  0  0  0  0  0  0  0
   -0.5144   -1.1380    2.7267 H   0  0  0  0  0  0  0  0  0  0  0  0
    0.5076   -2.3811    1.9958 H   0  0  0  0  0  0  0  0  0  0  0  0
    0.5203   -2.1512    3.7518 H   0  0  0  0  0  0  0  0  0  0  0  0
    2.5412   -1.1443    2.6135 H   0  0  0  0  0  0  0  0  0  0  0  0
    1.5744    0.0638    3.5070 H   0  0  0  0  0  0  0  0  0  0  0  0
    4.0379    1.1457   -1.5516 H   0  0  0  0  0  0  0  0  0  0  0  0
    4.5006    2.5229   -0.5172 H   0  0  0  0  0  0  0  0  0  0  0  0
    5.5000   -0.3593   -0.2089 H   0  0  0  0  0  0  0  0  0  0  0  0
    6.4360    0.9913   -0.8650 H   0  0  0  0  0  0  0  0  0  0  0  0
    5.9462    0.9941    0.8379 H   0  0  0  0  0  0  0  0  0  0  0  0
    1.0101   -1.3830   -2.1845 H   0  0  0  0  0  0  0  0  0  0  0  0
   -0.4183   -0.4139   -2.7054 H   0  0  0  0  0  0  0  0  0  0  0  0
   -0.6776    2.5763    1.6602 H   0  0  0  0  0  0  0  0  0  0  0  0
   -1.3510    2.7242    0.0121 H   0  0  0  0  0  0  0  0  0  0  0  0
   -2.8698    3.7967    1.6871 H   0  0  0  0  0  0  0  0  0  0  0  0
   -3.6400    2.4150    0.8893 H   0  0  0  0  0  0  0  0  0  0  0  0
   -3.0153    2.2449    2.5364 H   0  0  0  0  0  0  0  0  0  0  0  0
   -3.5236   -2.3293   -0.6441 H   0  0  0  0  0  0  0  0  0  0  0  0
   -4.3532   -2.3406    0.9350 H   0  0  0  0  0  0  0  0  0  0  0  0
   -5.0527   -0.5116   -1.4250 H   0  0  0  0  0  0  0  0  0  0  0  0
   -5.9717   -1.9375   -0.9227 H   0  0  0  0  0  0  0  0  0  0  0  0
   -5.8716   -0.5247    0.1409 H   0  0  0  0  0  0  0  0  0  0  0  0
  1  2  1  0  0  0  0
  2  3  1  0  0  0  0
  3  4  2  0  0  0  0
  4  5  2  0  0  0  0
  4  6  2  0  0  0  0
  6  7  1  0  0  0  0
  7  8  1  0  0  0  0
  4  9  1  0  0  0  0
  9 10  1  0  0  0  0
 10 11  1  0  0  0  0
 11 12  1  0  0  0  0
 12 13  2  0  0  0  0
 12 14  2  0  0  0  0
 14 15  1  0  0  0  0
 15 16  1  0  0  0  0
 12 17  2  0  0  0  0
 17 18  1  0  0  0  0
 18 19  1  0  0  0  0
  1 20  1  0  0  0  0
  1 21  1  0  0  0  0
  1 22  1  0  0  0  0
  2 23  1  0  0  0  0
  2 24  1  0  0  0  0
  7 25  1  0  0  0  0
  7 26  1  0  0  0  0
  8 27  1  0  0  0  0
  8 28  1  0  0  0  0
  8 29  1  0  0  0  0
 10 30  1  0  0  0  0
 10 31  1  0  0  0  0
 15 32  1  0  0  0  0
 15 33  1  0  0  0  0
 16 34  1  0  0  0  0
 16 35  1  0  0  0  0
 16 36  1  0  0  0  0
 18 37  1  0  0  0  0
 18 38  1  0  0  0  0
 19 39  1  0  0  0  0
 19 40  1  0  0  0  0
 19 41  1  0  0  0  0
M  END
