 xtb: 6.7.1 (edcfbbe)
          04092505203D

 41 40  0     0  0            999 V2000
    2.3387    0.1689   -3.1789 C   0  0  0  0  0  0  0  0  0  0  0  0
    3.4092    0.4730   -2.1503 C   0  0  0  0  0  0  0  0  0  0  0  0
    3.2808   -0.3563   -0.9847 O   0  0  0  0  0  0  0  0  0  0  0  0
    2.0771   -0.2126    0.0462 P   0  0  0  0  0  0  0  0  0  0  0  0
    1.6518    1.6638    0.4523 S   0  0  0  0  0  0  0  0  0  0  0  0
    2.6024   -1.0673    1.2675 O   0  0  0  0  0  0  0  0  0  0  0  0
    3.0630   -0.5096    2.5180 C   0  0  0  0  0  0  0  0  0  0  0  0
    2.1698   -0.9858    3.6465 C   0  0  0  0  0  0  0  0  0  0  0  0
    0.6729   -1.5934   -0.7242 S   0  0  0  0  0  0  0  0  0  0  0  0
   -0.2890   -1.9087    0.7847 C   0  0  0  0  0  0  0  0  0  0  0  0
   -0.9718   -0.4071    1.5460 S   0  0  0  0  0  0  0  0  0  0  0  0
   -2.0564    0.3511   -0.1033 P   0  0  0  0  0  0  0  0  0  0  0  0
   -1.2183    1.2205   -1.6552 S   0  0  0  0  0  0  0  0  0  0  0  0
   -3.1337    1.2803    0.6099 O   0  0  0  0  0  0  0  0  0  0  0  0
   -2.9171    2.6795    0.8500 C   0  0  0  0  0  0  0  0  0  0  0  0
   -1.8549    2.9123    1.9056 C   0  0  0  0  0  0  0  0  0  0  0  0
   -2.9159   -0.9347   -0.4300 O   0  0  0  0  0  0  0  0  0  0  0  0
   -3.3578   -1.3075   -1.7539 C   0  0  0  0  0  0  0  0  0  0  0  0
   -2.7271   -2.6284   -2.1485 C   0  0  0  0  0  0  0  0  0  0  0  0
    2.5361    0.7328   -4.0849 H   0  0  0  0  0  0  0  0  0  0  0  0
    2.3256   -0.8938   -3.4081 H   0  0  0  0  0  0  0  0  0  0  0  0
    1.3582    0.4584   -2.7980 H   0  0  0  0  0  0  0  0  0  0  0  0
    3.3574    1.5219   -1.8390 H   0  0  0  0  0  0  0  0  0  0  0  0
    4.4075    0.2454   -2.5263 H   0  0  0  0  0  0  0  0  0  0  0  0
    4.0887   -0.8612    2.6400 H   0  0  0  0  0  0  0  0  0  0  0  0
    3.0543    0.5828    2.4454 H   0  0  0  0  0  0  0  0  0  0  0  0
    2.5485   -0.5945    4.5850 H   0  0  0  0  0  0  0  0  0  0  0  0
    1.1526   -0.6274    3.4971 H   0  0  0  0  0  0  0  0  0  0  0  0
    2.1639   -2.0714    3.6888 H   0  0  0  0  0  0  0  0  0  0  0  0
    0.3499   -2.3679    1.5357 H   0  0  0  0  0  0  0  0  0  0  0  0
   -1.1004   -2.5729    0.4958 H   0  0  0  0  0  0  0  0  0  0  0  0
   -2.6322    3.1554   -0.0945 H   0  0  0  0  0  0  0  0  0  0  0  0
   -3.8933    3.0455    1.1711 H   0  0  0  0  0  0  0  0  0  0  0  0
   -2.0890    2.3518    2.8074 H   0  0  0  0  0  0  0  0  0  0  0  0
   -0.8801    2.5913    1.5355 H   0  0  0  0  0  0  0  0  0  0  0  0
   -1.8026    3.9706    2.1399 H   0  0  0  0  0  0  0  0  0  0  0  0
   -4.4446   -1.3822   -1.6926 H   0  0  0  0  0  0  0  0  0  0  0  0
   -3.0817   -0.5158   -2.4578 H   0  0  0  0  0  0  0  0  0  0  0  0
   -1.6438   -2.5285   -2.1939 H   0  0  0  0  0  0  0  0  0  0  0  0
   -2.9851   -3.3989   -1.4275 H   0  0  0  0  0  0  0  0  0  0  0  0
   -3.0968   -2.9174   -3.1269 H   0  0  0  0  0  0  0  0  0  0  0  0
  1  2  1  0  0  0  0
  2  3  1  0  0  0  0
  3  4  2  0  0  0  0
  4  5  2  0  0  0  0
  4  6  2  0  0  0  0
  6  7  1  0  0  0  0
  7  8  1  0  0  0  0
  4  9  1  0  0  0  0
  9 10  1  0  0  0  0
 10 11  1  0  0  0  0
 11 12  1  0  0  0  0
 12 13  2  0  0  0  0
 12 14  2  0  0  0  0
 14 15  1  0  0  0  0
 15 16  1  0  0  0  0
 12 17  2  0  0  0  0
 17 18  1  0  0  0  0
 18 19  1  0  0  0  0
  1 20  1  0  0  0  0
  1 21  1  0  0  0  0
  1 22  1  0  0  0  0
  2 23  1  0  0  0  0
  2 24  1  0  0  0  0
  7 25  1  0  0  0  0
  7 26  1  0  0  0  0
  8 27  1  0  0  0  0
  8 28  1  0  0  0  0
  8 29  1  0  0  0  0
 10 30  1  0  0  0  0
 10 31  1  0  0  0  0
 15 32  1  0  0  0  0
 15 33  1  0  0  0  0
 16 34  1  0  0  0  0
 16 35  1  0  0  0  0
 16 36  1  0  0  0  0
 18 37  1  0  0  0  0
 18 38  1  0  0  0  0
 19 39  1  0  0  0  0
 19 40  1  0  0  0  0
 19 41  1  0  0  0  0
M  END
