 xtb: 6.7.1 (edcfbbe)
          04092507313D

 38 37  0     0  0            999 V2000
    4.8298    0.2811   -1.9148 C   0  0  0  0  0  0  0  0  0  0  0  0
    4.6005   -0.9985   -1.1281 C   0  0  0  0  0  0  0  0  0  0  0  0
    3.1918   -1.3029   -1.1099 O   0  0  0  0  0  0  0  0  0  0  0  0
    2.5456   -1.3070    0.0381 C   0  0  0  0  0  0  0  0  0  0  0  0
    3.0540   -1.1398    1.1228 O   0  0  0  0  0  0  0  0  0  0  0  0
    1.0639   -1.5712   -0.1738 C   0  0  0  0  0  0  0  0  0  0  0  0
    0.4526   -0.4834   -1.0614 C   0  0  0  0  0  0  0  0  0  0  0  0
    0.9711   -0.4563   -2.0231 H   0  0  0  0  0  0  0  0  0  0  0  0
    0.5412    0.8705   -0.3892 C   0  0  0  0  0  0  0  0  0  0  0  0
   -0.4462    1.5002   -0.0628 O   0  0  0  0  0  0  0  0  0  0  0  0
    1.7738    1.2555   -0.2102 O   0  0  0  0  0  0  0  0  0  0  0  0
    2.0114    2.4364    0.5901 C   0  0  0  0  0  0  0  0  0  0  0  0
    1.9881    2.0804    2.0669 C   0  0  0  0  0  0  0  0  0  0  0  0
   -1.2911   -0.8099   -1.4487 S   0  0  0  0  0  0  0  0  0  0  0  0
   -2.2885   -0.1752    0.3377 P   0  0  0  0  0  0  0  0  0  0  0  0
   -1.4469   -0.1870    2.1097 S   0  0  0  0  0  0  0  0  0  0  0  0
   -3.2169    1.0696   -0.0440 O   0  0  0  0  0  0  0  0  0  0  0  0
   -2.9955    2.4502    0.2372 C   0  0  0  0  0  0  0  0  0  0  0  0
   -3.4150   -1.3042    0.3894 O   0  0  0  0  0  0  0  0  0  0  0  0
   -4.3280   -1.5709   -0.6873 C   0  0  0  0  0  0  0  0  0  0  0  0
    5.8898    0.5121   -1.9230 H   0  0  0  0  0  0  0  0  0  0  0  0
    4.4817    0.1596   -2.9363 H   0  0  0  0  0  0  0  0  0  0  0  0
    4.2875    1.1024   -1.4541 H   0  0  0  0  0  0  0  0  0  0  0  0
    4.9493   -0.9039   -0.0963 H   0  0  0  0  0  0  0  0  0  0  0  0
    5.0867   -1.8499   -1.6084 H   0  0  0  0  0  0  0  0  0  0  0  0
    0.5727   -1.5993    0.8015 H   0  0  0  0  0  0  0  0  0  0  0  0
    0.9438   -2.5345   -0.6710 H   0  0  0  0  0  0  0  0  0  0  0  0
    2.9971    2.7815    0.2785 H   0  0  0  0  0  0  0  0  0  0  0  0
    1.2485    3.1812    0.3505 H   0  0  0  0  0  0  0  0  0  0  0  0
    0.9958    1.7420    2.3618 H   0  0  0  0  0  0  0  0  0  0  0  0
    2.6929    1.2766    2.2676 H   0  0  0  0  0  0  0  0  0  0  0  0
    2.2546    2.9518    2.6549 H   0  0  0  0  0  0  0  0  0  0  0  0
   -2.4411    2.5634    1.1686 H   0  0  0  0  0  0  0  0  0  0  0  0
   -3.9860    2.8916    0.3265 H   0  0  0  0  0  0  0  0  0  0  0  0
   -2.4391    2.9064   -0.5793 H   0  0  0  0  0  0  0  0  0  0  0  0
   -4.9616   -0.7033   -0.8614 H   0  0  0  0  0  0  0  0  0  0  0  0
   -4.9190   -2.4202   -0.3540 H   0  0  0  0  0  0  0  0  0  0  0  0
   -3.7751   -1.8196   -1.5934 H   0  0  0  0  0  0  0  0  0  0  0  0
  1  2  1  0  0  0  0
  2  3  1  0  0  0  0
  3  4  1  0  0  0  0
  4  5  2  0  0  0  0
  4  6  1  0  0  0  0
  6  7  1  0  0  0  0
  7  8  1  0  0  0  0
  7  9  1  0  0  0  0
  9 10  2  0  0  0  0
  9 11  4  0  0  0  0
 11 12  1  0  0  0  0
 12 13  1  0  0  0  0
  7 14  1  0  0  0  0
 14 15  1  0  0  0  0
 15 16  2  0  0  0  0
 15 17  2  0  0  0  0
 17 18  1  0  0  0  0
 15 19  1  0  0  0  0
 19 20  1  0  0  0  0
  1 21  1  0  0  0  0
  1 22  1  0  0  0  0
  1 23  1  0  0  0  0
  2 24  1  0  0  0  0
  2 25  1  0  0  0  0
  6 26  1  0  0  0  0
  6 27  1  0  0  0  0
 12 28  1  0  0  0  0
 12 29  1  0  0  0  0
 13 30  1  0  0  0  0
 13 31  1  0  0  0  0
 13 32  1  0  0  0  0
 18 33  1  0  0  0  0
 18 34  1  0  0  0  0
 18 35  1  0  0  0  0
 20 36  1  0  0  0  0
 20 37  1  0  0  0  0
 20 38  1  0  0  0  0
M  END
