 xtb: 6.7.1 (edcfbbe)
          04032520223D

 16 16  0     0  0            999 V2000
   -1.3775   -0.0242   -0.4000 C   0  0  0  0  0  0  0  0  0  0  0  0
   -0.7352   -1.1856    0.3534 C   0  0  0  0  0  0  0  0  0  0  0  0
    0.7648   -1.2215    0.0194 C   0  0  0  0  0  0  0  0  0  0  0  0
    1.2564    0.0355   -0.4191 O   0  0  0  0  0  0  0  0  0  0  0  0
    0.7337    1.1088    0.3402 C   0  0  0  0  0  0  0  0  0  0  0  0
   -0.7778    1.2924    0.1033 C   0  0  0  0  0  0  0  0  0  0  0  0
   -2.4581   -0.0239   -0.2608 H   0  0  0  0  0  0  0  0  0  0  0  0
   -1.1675   -0.1368   -1.4655 H   0  0  0  0  0  0  0  0  0  0  0  0
   -0.8806   -1.0400    1.4252 H   0  0  0  0  0  0  0  0  0  0  0  0
   -1.1934   -2.1330    0.0735 H   0  0  0  0  0  0  0  0  0  0  0  0
    1.3453   -1.5526    0.8942 H   0  0  0  0  0  0  0  0  0  0  0  0
    0.9681   -1.9004   -0.8114 H   0  0  0  0  0  0  0  0  0  0  0  0
    0.9387    0.9296    1.4054 H   0  0  0  0  0  0  0  0  0  0  0  0
    1.2971    1.9874    0.0226 H   0  0  0  0  0  0  0  0  0  0  0  0
   -1.2527    1.5878    1.0392 H   0  0  0  0  0  0  0  0  0  0  0  0
   -0.9527    2.0784   -0.6307 H   0  0  0  0  0  0  0  0  0  0  0  0
  1  2  1  0  0  0  0
  2  3  1  0  0  0  0
  3  4  1  0  0  0  0
  4  5  1  0  0  0  0
  1  6  1  0  0  0  0
  5  6  1  0  0  0  0
  1  7  1  0  0  0  0
  1  8  1  0  0  0  0
  2  9  1  0  0  0  0
  2 10  1  0  0  0  0
  3 11  1  0  0  0  0
  3 12  1  0  0  0  0
  5 13  1  0  0  0  0
  5 14  1  0  0  0  0
  6 15  1  0  0  0  0
  6 16  1  0  0  0  0
M  END
