 xtb: 6.7.1 (edcfbbe)
          04092505213D

 41 40  0     0  0            999 V2000
    5.7478   -0.4913   -1.3680 C   0  0  0  0  0  0  0  0  0  0  0  0
    4.5551    0.3374   -0.9364 C   0  0  0  0  0  0  0  0  0  0  0  0
    3.5310   -0.5691   -0.4743 O   0  0  0  0  0  0  0  0  0  0  0  0
    2.3195   -0.0506    0.4096 P   0  0  0  0  0  0  0  0  0  0  0  0
    2.8046    0.9572    2.0111 S   0  0  0  0  0  0  0  0  0  0  0  0
    1.5350   -1.3735    0.7421 O   0  0  0  0  0  0  0  0  0  0  0  0
    1.2195   -2.3874   -0.2458 C   0  0  0  0  0  0  0  0  0  0  0  0
    2.2520   -3.4937   -0.2252 C   0  0  0  0  0  0  0  0  0  0  0  0
    1.1533    1.0285   -1.0195 S   0  0  0  0  0  0  0  0  0  0  0  0
    0.2262    2.0219    0.1760 C   0  0  0  0  0  0  0  0  0  0  0  0
   -0.7915    1.0473    1.3199 S   0  0  0  0  0  0  0  0  0  0  0  0
   -2.2758    0.3630   -0.0375 P   0  0  0  0  0  0  0  0  0  0  0  0
   -1.7730   -0.9278   -1.4285 S   0  0  0  0  0  0  0  0  0  0  0  0
   -2.8327    1.7448   -0.5614 O   0  0  0  0  0  0  0  0  0  0  0  0
   -3.5841    1.8402   -1.7924 C   0  0  0  0  0  0  0  0  0  0  0  0
   -4.9424    1.1862   -1.6613 C   0  0  0  0  0  0  0  0  0  0  0  0
   -3.4152   -0.1127    0.9630 O   0  0  0  0  0  0  0  0  0  0  0  0
   -3.3178   -1.3412    1.7114 C   0  0  0  0  0  0  0  0  0  0  0  0
   -4.0243   -2.4727    0.9892 C   0  0  0  0  0  0  0  0  0  0  0  0
    6.1317   -1.0605   -0.5260 H   0  0  0  0  0  0  0  0  0  0  0  0
    5.4574   -1.1786   -2.1573 H   0  0  0  0  0  0  0  0  0  0  0  0
    6.5249    0.1702   -1.7363 H   0  0  0  0  0  0  0  0  0  0  0  0
    4.1461    0.9159   -1.7690 H   0  0  0  0  0  0  0  0  0  0  0  0
    4.8121    1.0172   -0.1175 H   0  0  0  0  0  0  0  0  0  0  0  0
    0.2326   -2.7555    0.0421 H   0  0  0  0  0  0  0  0  0  0  0  0
    1.1498   -1.9195   -1.2318 H   0  0  0  0  0  0  0  0  0  0  0  0
    3.2238   -3.1072   -0.5200 H   0  0  0  0  0  0  0  0  0  0  0  0
    2.3278   -3.9114    0.7750 H   0  0  0  0  0  0  0  0  0  0  0  0
    1.9475   -4.2711   -0.9188 H   0  0  0  0  0  0  0  0  0  0  0  0
   -0.4037    2.7023   -0.3912 H   0  0  0  0  0  0  0  0  0  0  0  0
    0.9304    2.5631    0.8085 H   0  0  0  0  0  0  0  0  0  0  0  0
   -3.6631    2.9136   -1.9686 H   0  0  0  0  0  0  0  0  0  0  0  0
   -3.0029    1.3698   -2.5920 H   0  0  0  0  0  0  0  0  0  0  0  0
   -4.8195    0.1145   -1.5100 H   0  0  0  0  0  0  0  0  0  0  0  0
   -5.4788    1.6010   -0.8121 H   0  0  0  0  0  0  0  0  0  0  0  0
   -5.5134    1.3528   -2.5693 H   0  0  0  0  0  0  0  0  0  0  0  0
   -2.2631   -1.5776    1.8833 H   0  0  0  0  0  0  0  0  0  0  0  0
   -3.7952   -1.1198    2.6678 H   0  0  0  0  0  0  0  0  0  0  0  0
   -3.5466   -2.6660    0.0312 H   0  0  0  0  0  0  0  0  0  0  0  0
   -3.9759   -3.3701    1.5975 H   0  0  0  0  0  0  0  0  0  0  0  0
   -5.0645   -2.2110    0.8169 H   0  0  0  0  0  0  0  0  0  0  0  0
  1  2  1  0  0  0  0
  2  3  1  0  0  0  0
  3  4  2  0  0  0  0
  4  5  2  0  0  0  0
  4  6  2  0  0  0  0
  6  7  1  0  0  0  0
  7  8  1  0  0  0  0
  4  9  1  0  0  0  0
  9 10  1  0  0  0  0
 10 11  1  0  0  0  0
 11 12  1  0  0  0  0
 12 13  2  0  0  0  0
 12 14  2  0  0  0  0
 14 15  1  0  0  0  0
 15 16  1  0  0  0  0
 12 17  2  0  0  0  0
 17 18  1  0  0  0  0
 18 19  1  0  0  0  0
  1 20  1  0  0  0  0
  1 21  1  0  0  0  0
  1 22  1  0  0  0  0
  2 23  1  0  0  0  0
  2 24  1  0  0  0  0
  7 25  1  0  0  0  0
  7 26  1  0  0  0  0
  8 27  1  0  0  0  0
  8 28  1  0  0  0  0
  8 29  1  0  0  0  0
 10 30  1  0  0  0  0
 10 31  1  0  0  0  0
 15 32  1  0  0  0  0
 15 33  1  0  0  0  0
 16 34  1  0  0  0  0
 16 35  1  0  0  0  0
 16 36  1  0  0  0  0
 18 37  1  0  0  0  0
 18 38  1  0  0  0  0
 19 39  1  0  0  0  0
 19 40  1  0  0  0  0
 19 41  1  0  0  0  0
M  END
