 xtb: 6.7.1 (edcfbbe)
          04092505203D

 41 40  0     0  0            999 V2000
    5.5808   -0.8173   -0.9134 C   0  0  0  0  0  0  0  0  0  0  0  0
    4.2083   -0.3012   -1.2957 C   0  0  0  0  0  0  0  0  0  0  0  0
    3.2945   -0.6397   -0.2355 O   0  0  0  0  0  0  0  0  0  0  0  0
    1.8466    0.0268   -0.1326 P   0  0  0  0  0  0  0  0  0  0  0  0
    1.9154    1.9869   -0.2705 S   0  0  0  0  0  0  0  0  0  0  0  0
    1.3613   -0.6059    1.2308 O   0  0  0  0  0  0  0  0  0  0  0  0
    1.7323   -0.0351    2.5041 C   0  0  0  0  0  0  0  0  0  0  0  0
    0.7146   -0.4761    3.5353 C   0  0  0  0  0  0  0  0  0  0  0  0
    0.7658   -1.0071   -1.6050 S   0  0  0  0  0  0  0  0  0  0  0  0
   -0.3038    0.3283   -2.2208 C   0  0  0  0  0  0  0  0  0  0  0  0
   -2.0756    0.1304   -1.8606 S   0  0  0  0  0  0  0  0  0  0  0  0
   -2.0500    0.0132    0.2587 P   0  0  0  0  0  0  0  0  0  0  0  0
   -3.7806    0.2027    1.1509 S   0  0  0  0  0  0  0  0  0  0  0  0
   -0.9151    1.0412    0.6990 O   0  0  0  0  0  0  0  0  0  0  0  0
   -1.2705    2.3710    1.1264 C   0  0  0  0  0  0  0  0  0  0  0  0
   -1.6891    3.2526   -0.0327 C   0  0  0  0  0  0  0  0  0  0  0  0
   -1.2574   -1.3152    0.6131 O   0  0  0  0  0  0  0  0  0  0  0  0
   -1.9201   -2.5845    0.7442 C   0  0  0  0  0  0  0  0  0  0  0  0
   -2.3883   -3.1271   -0.5920 C   0  0  0  0  0  0  0  0  0  0  0  0
    6.2797   -0.5936   -1.7125 H   0  0  0  0  0  0  0  0  0  0  0  0
    5.9190   -0.3410    0.0025 H   0  0  0  0  0  0  0  0  0  0  0  0
    5.5419   -1.8916   -0.7581 H   0  0  0  0  0  0  0  0  0  0  0  0
    3.8500   -0.7664   -2.2182 H   0  0  0  0  0  0  0  0  0  0  0  0
    4.2087    0.7871   -1.4201 H   0  0  0  0  0  0  0  0  0  0  0  0
    2.7350   -0.3920    2.7531 H   0  0  0  0  0  0  0  0  0  0  0  0
    1.7554    1.0559    2.4053 H   0  0  0  0  0  0  0  0  0  0  0  0
    0.7135   -1.5590    3.6176 H   0  0  0  0  0  0  0  0  0  0  0  0
    0.9664   -0.0399    4.4966 H   0  0  0  0  0  0  0  0  0  0  0  0
   -0.2803   -0.1491    3.2416 H   0  0  0  0  0  0  0  0  0  0  0  0
   -0.2458    0.3209   -3.3064 H   0  0  0  0  0  0  0  0  0  0  0  0
    0.0618    1.2740   -1.8142 H   0  0  0  0  0  0  0  0  0  0  0  0
   -2.0768    2.2916    1.8622 H   0  0  0  0  0  0  0  0  0  0  0  0
   -0.3652    2.7505    1.6030 H   0  0  0  0  0  0  0  0  0  0  0  0
   -2.5668    2.8335   -0.5240 H   0  0  0  0  0  0  0  0  0  0  0  0
   -1.9343    4.2398    0.3456 H   0  0  0  0  0  0  0  0  0  0  0  0
   -0.8788    3.3426   -0.7526 H   0  0  0  0  0  0  0  0  0  0  0  0
   -1.1620   -3.2271    1.1946 H   0  0  0  0  0  0  0  0  0  0  0  0
   -2.7640   -2.4648    1.4318 H   0  0  0  0  0  0  0  0  0  0  0  0
   -1.5618   -3.1549   -1.2988 H   0  0  0  0  0  0  0  0  0  0  0  0
   -2.7758   -4.1313   -0.4524 H   0  0  0  0  0  0  0  0  0  0  0  0
   -3.1793   -2.4965   -0.9966 H   0  0  0  0  0  0  0  0  0  0  0  0
  1  2  1  0  0  0  0
  2  3  1  0  0  0  0
  3  4  1  0  0  0  0
  4  5  2  0  0  0  0
  4  6  2  0  0  0  0
  6  7  1  0  0  0  0
  7  8  1  0  0  0  0
  4  9  1  0  0  0  0
  9 10  1  0  0  0  0
 10 11  1  0  0  0  0
 11 12  1  0  0  0  0
 12 13  2  0  0  0  0
 12 14  1  0  0  0  0
 14 15  1  0  0  0  0
 15 16  1  0  0  0  0
 12 17  2  0  0  0  0
 17 18  1  0  0  0  0
 18 19  1  0  0  0  0
  1 20  1  0  0  0  0
  1 21  1  0  0  0  0
  1 22  1  0  0  0  0
  2 23  1  0  0  0  0
  2 24  1  0  0  0  0
  7 25  1  0  0  0  0
  7 26  1  0  0  0  0
  8 27  1  0  0  0  0
  8 28  1  0  0  0  0
  8 29  1  0  0  0  0
 10 30  1  0  0  0  0
 10 31  1  0  0  0  0
 15 32  1  0  0  0  0
 15 33  1  0  0  0  0
 16 34  1  0  0  0  0
 16 35  1  0  0  0  0
 16 36  1  0  0  0  0
 18 37  1  0  0  0  0
 18 38  1  0  0  0  0
 19 39  1  0  0  0  0
 19 40  1  0  0  0  0
 19 41  1  0  0  0  0
M  END
