 xtb: 6.7.1 (edcfbbe)
          04092505203D

 41 40  0     0  0            999 V2000
    4.1015   -1.5294   -2.2750 C   0  0  0  0  0  0  0  0  0  0  0  0
    4.7535   -1.1641   -0.9577 C   0  0  0  0  0  0  0  0  0  0  0  0
    3.8020   -1.0752    0.1187 O   0  0  0  0  0  0  0  0  0  0  0  0
    2.6709    0.0366    0.1666 P   0  0  0  0  0  0  0  0  0  0  0  0
    3.1802    1.8190   -0.4719 S   0  0  0  0  0  0  0  0  0  0  0  0
    2.2741    0.0715    1.6918 O   0  0  0  0  0  0  0  0  0  0  0  0
    2.3848   -1.0294    2.6287 C   0  0  0  0  0  0  0  0  0  0  0  0
    1.5147   -2.2066    2.2456 C   0  0  0  0  0  0  0  0  0  0  0  0
    1.0149   -0.8146   -0.8890 S   0  0  0  0  0  0  0  0  0  0  0  0
    0.0585    0.7092   -0.9972 C   0  0  0  0  0  0  0  0  0  0  0  0
   -0.9207    1.0370    0.4932 S   0  0  0  0  0  0  0  0  0  0  0  0
   -2.7733    0.3339   -0.3094 P   0  0  0  0  0  0  0  0  0  0  0  0
   -3.2374    1.0072   -2.0852 S   0  0  0  0  0  0  0  0  0  0  0  0
   -3.8206    0.6049    0.8550 O   0  0  0  0  0  0  0  0  0  0  0  0
   -4.5433    1.8435    0.9799 C   0  0  0  0  0  0  0  0  0  0  0  0
   -3.6284    3.0175    1.2607 C   0  0  0  0  0  0  0  0  0  0  0  0
   -2.6576   -1.2355   -0.3072 O   0  0  0  0  0  0  0  0  0  0  0  0
   -2.4105   -2.0170    0.8909 C   0  0  0  0  0  0  0  0  0  0  0  0
   -1.6828   -3.2796    0.4785 C   0  0  0  0  0  0  0  0  0  0  0  0
    3.4669   -0.7128   -2.6164 H   0  0  0  0  0  0  0  0  0  0  0  0
    4.8721   -1.7066   -3.0184 H   0  0  0  0  0  0  0  0  0  0  0  0
    3.4933   -2.4236   -2.1646 H   0  0  0  0  0  0  0  0  0  0  0  0
    5.2725   -0.2043   -1.0398 H   0  0  0  0  0  0  0  0  0  0  0  0
    5.4485   -1.9362   -0.6244 H   0  0  0  0  0  0  0  0  0  0  0  0
    3.4350   -1.3209    2.6879 H   0  0  0  0  0  0  0  0  0  0  0  0
    2.0673   -0.5820    3.5718 H   0  0  0  0  0  0  0  0  0  0  0  0
    1.8515   -2.6332    1.3030 H   0  0  0  0  0  0  0  0  0  0  0  0
    1.5807   -2.9627    3.0215 H   0  0  0  0  0  0  0  0  0  0  0  0
    0.4803   -1.8913    2.1417 H   0  0  0  0  0  0  0  0  0  0  0  0
   -0.6168    0.6262   -1.8500 H   0  0  0  0  0  0  0  0  0  0  0  0
    0.7499    1.5440   -1.1302 H   0  0  0  0  0  0  0  0  0  0  0  0
   -5.1064    2.0082    0.0564 H   0  0  0  0  0  0  0  0  0  0  0  0
   -5.2299    1.6596    1.8075 H   0  0  0  0  0  0  0  0  0  0  0  0
   -2.9980    3.2141    0.3942 H   0  0  0  0  0  0  0  0  0  0  0  0
   -4.2274    3.8993    1.4644 H   0  0  0  0  0  0  0  0  0  0  0  0
   -2.9914    2.8075    2.1165 H   0  0  0  0  0  0  0  0  0  0  0  0
   -1.8205   -1.4113    1.5855 H   0  0  0  0  0  0  0  0  0  0  0  0
   -3.3795   -2.2354    1.3431 H   0  0  0  0  0  0  0  0  0  0  0  0
   -2.2911   -3.8427   -0.2230 H   0  0  0  0  0  0  0  0  0  0  0  0
   -0.7408   -3.0294   -0.0033 H   0  0  0  0  0  0  0  0  0  0  0  0
   -1.4912   -3.8861    1.3576 H   0  0  0  0  0  0  0  0  0  0  0  0
  1  2  1  0  0  0  0
  2  3  1  0  0  0  0
  3  4  2  0  0  0  0
  4  5  2  0  0  0  0
  4  6  2  0  0  0  0
  6  7  1  0  0  0  0
  7  8  1  0  0  0  0
  4  9  1  0  0  0  0
  9 10  1  0  0  0  0
 10 11  1  0  0  0  0
 11 12  1  0  0  0  0
 12 13  2  0  0  0  0
 12 14  2  0  0  0  0
 14 15  1  0  0  0  0
 15 16  1  0  0  0  0
 12 17  2  0  0  0  0
 17 18  1  0  0  0  0
 18 19  1  0  0  0  0
  1 20  1  0  0  0  0
  1 21  1  0  0  0  0
  1 22  1  0  0  0  0
  2 23  1  0  0  0  0
  2 24  1  0  0  0  0
  7 25  1  0  0  0  0
  7 26  1  0  0  0  0
  8 27  1  0  0  0  0
  8 28  1  0  0  0  0
  8 29  1  0  0  0  0
 10 30  1  0  0  0  0
 10 31  1  0  0  0  0
 15 32  1  0  0  0  0
 15 33  1  0  0  0  0
 16 34  1  0  0  0  0
 16 35  1  0  0  0  0
 16 36  1  0  0  0  0
 18 37  1  0  0  0  0
 18 38  1  0  0  0  0
 19 39  1  0  0  0  0
 19 40  1  0  0  0  0
 19 41  1  0  0  0  0
M  END
