 xtb: 6.7.1 (edcfbbe)
          04092505203D

 41 40  0     0  0            999 V2000
    1.4713   -0.5040   -2.8538 C   0  0  0  0  0  0  0  0  0  0  0  0
    2.4960    0.1683   -1.9625 C   0  0  0  0  0  0  0  0  0  0  0  0
    2.8330   -0.6813   -0.8529 O   0  0  0  0  0  0  0  0  0  0  0  0
    2.2936   -0.4779    0.6293 P   0  0  0  0  0  0  0  0  0  0  0  0
    2.3439    1.3712    1.2960 S   0  0  0  0  0  0  0  0  0  0  0  0
    3.1501   -1.5567    1.4090 O   0  0  0  0  0  0  0  0  0  0  0  0
    4.5744   -1.7453    1.2605 C   0  0  0  0  0  0  0  0  0  0  0  0
    5.3642   -0.5025    1.6136 C   0  0  0  0  0  0  0  0  0  0  0  0
    0.4278   -1.4583    0.7639 S   0  0  0  0  0  0  0  0  0  0  0  0
   -0.4674   -0.2832    1.8423 C   0  0  0  0  0  0  0  0  0  0  0  0
   -2.2185   -0.1987    1.4375 S   0  0  0  0  0  0  0  0  0  0  0  0
   -2.0245    0.5423   -0.5568 P   0  0  0  0  0  0  0  0  0  0  0  0
   -0.6134    1.8569   -0.8807 S   0  0  0  0  0  0  0  0  0  0  0  0
   -3.4997    1.0131   -0.9157 O   0  0  0  0  0  0  0  0  0  0  0  0
   -3.9884    2.3358   -0.6308 C   0  0  0  0  0  0  0  0  0  0  0  0
   -4.0865    2.6093    0.8560 C   0  0  0  0  0  0  0  0  0  0  0  0
   -1.8427   -0.7399   -1.4559 O   0  0  0  0  0  0  0  0  0  0  0  0
   -2.7434   -1.8756   -1.4403 C   0  0  0  0  0  0  0  0  0  0  0  0
   -3.7618   -1.7678   -2.5564 C   0  0  0  0  0  0  0  0  0  0  0  0
    1.3120    0.1101   -3.7343 H   0  0  0  0  0  0  0  0  0  0  0  0
    1.8250   -1.4866   -3.1529 H   0  0  0  0  0  0  0  0  0  0  0  0
    0.5234   -0.6128   -2.3303 H   0  0  0  0  0  0  0  0  0  0  0  0
    2.1266    1.1285   -1.5867 H   0  0  0  0  0  0  0  0  0  0  0  0
    3.4369    0.3263   -2.4936 H   0  0  0  0  0  0  0  0  0  0  0  0
    4.7913   -2.5658    1.9466 H   0  0  0  0  0  0  0  0  0  0  0  0
    4.7728   -2.0561    0.2325 H   0  0  0  0  0  0  0  0  0  0  0  0
    5.1308    0.3019    0.9170 H   0  0  0  0  0  0  0  0  0  0  0  0
    5.1146   -0.1679    2.6178 H   0  0  0  0  0  0  0  0  0  0  0  0
    6.4259   -0.7217    1.5600 H   0  0  0  0  0  0  0  0  0  0  0  0
   -0.0072    0.7031    1.7276 H   0  0  0  0  0  0  0  0  0  0  0  0
   -0.4086   -0.6269    2.8720 H   0  0  0  0  0  0  0  0  0  0  0  0
   -3.3235    3.0595   -1.1123 H   0  0  0  0  0  0  0  0  0  0  0  0
   -4.9689    2.3584   -1.1086 H   0  0  0  0  0  0  0  0  0  0  0  0
   -4.6442    1.8184    1.3511 H   0  0  0  0  0  0  0  0  0  0  0  0
   -3.0905    2.6632    1.2929 H   0  0  0  0  0  0  0  0  0  0  0  0
   -4.5883    3.5588    1.0124 H   0  0  0  0  0  0  0  0  0  0  0  0
   -2.0903   -2.7401   -1.5731 H   0  0  0  0  0  0  0  0  0  0  0  0
   -3.2293   -1.9290   -0.4624 H   0  0  0  0  0  0  0  0  0  0  0  0
   -4.3709   -2.6662   -2.5666 H   0  0  0  0  0  0  0  0  0  0  0  0
   -4.4006   -0.9027   -2.4012 H   0  0  0  0  0  0  0  0  0  0  0  0
   -3.2574   -1.6650   -3.5131 H   0  0  0  0  0  0  0  0  0  0  0  0
  1  2  1  0  0  0  0
  2  3  1  0  0  0  0
  3  4  2  0  0  0  0
  4  5  2  0  0  0  0
  4  6  2  0  0  0  0
  6  7  1  0  0  0  0
  7  8  1  0  0  0  0
  4  9  1  0  0  0  0
  9 10  1  0  0  0  0
 10 11  1  0  0  0  0
 11 12  1  0  0  0  0
 12 13  2  0  0  0  0
 12 14  2  0  0  0  0
 14 15  1  0  0  0  0
 15 16  1  0  0  0  0
 12 17  2  0  0  0  0
 17 18  1  0  0  0  0
 18 19  1  0  0  0  0
  1 20  1  0  0  0  0
  1 21  1  0  0  0  0
  1 22  1  0  0  0  0
  2 23  1  0  0  0  0
  2 24  1  0  0  0  0
  7 25  1  0  0  0  0
  7 26  1  0  0  0  0
  8 27  1  0  0  0  0
  8 28  1  0  0  0  0
  8 29  1  0  0  0  0
 10 30  1  0  0  0  0
 10 31  1  0  0  0  0
 15 32  1  0  0  0  0
 15 33  1  0  0  0  0
 16 34  1  0  0  0  0
 16 35  1  0  0  0  0
 16 36  1  0  0  0  0
 18 37  1  0  0  0  0
 18 38  1  0  0  0  0
 19 39  1  0  0  0  0
 19 40  1  0  0  0  0
 19 41  1  0  0  0  0
M  END
