 xtb: 6.7.1 (edcfbbe)
          04092505213D

 41 40  0     0  0            999 V2000
    4.5369    1.5230    0.1572 C   0  0  0  0  0  0  0  0  0  0  0  0
    3.4078    1.2498   -0.8156 C   0  0  0  0  0  0  0  0  0  0  0  0
    2.7646   -0.0054   -0.5284 O   0  0  0  0  0  0  0  0  0  0  0  0
    1.7720   -0.1830    0.7148 P   0  0  0  0  0  0  0  0  0  0  0  0
    0.9649    1.4595    1.3988 S   0  0  0  0  0  0  0  0  0  0  0  0
    2.5935   -0.8529    1.8939 O   0  0  0  0  0  0  0  0  0  0  0  0
    3.4099   -2.0392    1.7361 C   0  0  0  0  0  0  0  0  0  0  0  0
    2.7294   -3.2369    2.3679 C   0  0  0  0  0  0  0  0  0  0  0  0
    0.6353   -1.8048   -0.0449 S   0  0  0  0  0  0  0  0  0  0  0  0
    0.3097   -1.2168   -1.7340 C   0  0  0  0  0  0  0  0  0  0  0  0
   -0.1782    0.5239   -1.8299 S   0  0  0  0  0  0  0  0  0  0  0  0
   -2.1034    0.2953   -1.0130 P   0  0  0  0  0  0  0  0  0  0  0  0
   -3.2363   -1.0945   -1.7802 S   0  0  0  0  0  0  0  0  0  0  0  0
   -2.7661    1.7247   -1.1719 O   0  0  0  0  0  0  0  0  0  0  0  0
   -2.1914    2.9306   -0.6012 C   0  0  0  0  0  0  0  0  0  0  0  0
   -3.2282    3.6035    0.2746 C   0  0  0  0  0  0  0  0  0  0  0  0
   -1.7244    0.1202    0.5302 O   0  0  0  0  0  0  0  0  0  0  0  0
   -2.7036   -0.3106    1.4999 C   0  0  0  0  0  0  0  0  0  0  0  0
   -2.5525   -1.7895    1.7929 C   0  0  0  0  0  0  0  0  0  0  0  0
    5.2649    0.7164    0.1303 H   0  0  0  0  0  0  0  0  0  0  0  0
    5.0233    2.4561   -0.1085 H   0  0  0  0  0  0  0  0  0  0  0  0
    4.1373    1.6077    1.1675 H   0  0  0  0  0  0  0  0  0  0  0  0
    3.7677    1.1382   -1.8392 H   0  0  0  0  0  0  0  0  0  0  0  0
    2.6569    2.0449   -0.7720 H   0  0  0  0  0  0  0  0  0  0  0  0
    3.6014   -2.2043    0.6732 H   0  0  0  0  0  0  0  0  0  0  0  0
    4.3444   -1.8018    2.2476 H   0  0  0  0  0  0  0  0  0  0  0  0
    2.5037   -3.0285    3.4100 H   0  0  0  0  0  0  0  0  0  0  0  0
    1.8024   -3.4660    1.8465 H   0  0  0  0  0  0  0  0  0  0  0  0
    3.3921   -4.0944    2.3087 H   0  0  0  0  0  0  0  0  0  0  0  0
   -0.4963   -1.8404   -2.1240 H   0  0  0  0  0  0  0  0  0  0  0  0
    1.2131   -1.3179   -2.3301 H   0  0  0  0  0  0  0  0  0  0  0  0
   -1.2959    2.6755   -0.0267 H   0  0  0  0  0  0  0  0  0  0  0  0
   -1.9142    3.5599   -1.4486 H   0  0  0  0  0  0  0  0  0  0  0  0
   -2.8251    4.5427    0.6397 H   0  0  0  0  0  0  0  0  0  0  0  0
   -4.1310    3.7942   -0.2987 H   0  0  0  0  0  0  0  0  0  0  0  0
   -3.4758    2.9700    1.1228 H   0  0  0  0  0  0  0  0  0  0  0  0
   -2.4973    0.2953    2.3848 H   0  0  0  0  0  0  0  0  0  0  0  0
   -3.7057   -0.0866    1.1204 H   0  0  0  0  0  0  0  0  0  0  0  0
   -1.5420   -2.0006    2.1329 H   0  0  0  0  0  0  0  0  0  0  0  0
   -3.2607   -2.0738    2.5644 H   0  0  0  0  0  0  0  0  0  0  0  0
   -2.7485   -2.3715    0.8949 H   0  0  0  0  0  0  0  0  0  0  0  0
  1  2  1  0  0  0  0
  2  3  1  0  0  0  0
  3  4  1  0  0  0  0
  4  5  2  0  0  0  0
  4  6  2  0  0  0  0
  6  7  1  0  0  0  0
  7  8  1  0  0  0  0
  4  9  1  0  0  0  0
  9 10  1  0  0  0  0
 10 11  1  0  0  0  0
 11 12  1  0  0  0  0
 12 13  2  0  0  0  0
 12 14  2  0  0  0  0
 14 15  1  0  0  0  0
 15 16  1  0  0  0  0
 12 17  1  0  0  0  0
 17 18  1  0  0  0  0
 18 19  1  0  0  0  0
  1 20  1  0  0  0  0
  1 21  1  0  0  0  0
  1 22  1  0  0  0  0
  2 23  1  0  0  0  0
  2 24  1  0  0  0  0
  7 25  1  0  0  0  0
  7 26  1  0  0  0  0
  8 27  1  0  0  0  0
  8 28  1  0  0  0  0
  8 29  1  0  0  0  0
 10 30  1  0  0  0  0
 10 31  1  0  0  0  0
 15 32  1  0  0  0  0
 15 33  1  0  0  0  0
 16 34  1  0  0  0  0
 16 35  1  0  0  0  0
 16 36  1  0  0  0  0
 18 37  1  0  0  0  0
 18 38  1  0  0  0  0
 19 39  1  0  0  0  0
 19 40  1  0  0  0  0
 19 41  1  0  0  0  0
M  END
