 xtb: 6.7.1 (edcfbbe)
          04092505213D

 41 40  0     0  0            999 V2000
    3.4897    2.1964   -0.8362 C   0  0  0  0  0  0  0  0  0  0  0  0
    2.1559    1.4901   -0.9466 C   0  0  0  0  0  0  0  0  0  0  0  0
    1.6960    1.0658    0.3621 O   0  0  0  0  0  0  0  0  0  0  0  0
    1.8953   -0.3986    0.9087 P   0  0  0  0  0  0  0  0  0  0  0  0
    1.4683   -0.5736    2.8067 S   0  0  0  0  0  0  0  0  0  0  0  0
    3.4009   -0.7130    0.5157 O   0  0  0  0  0  0  0  0  0  0  0  0
    4.0245   -1.9549    0.9045 C   0  0  0  0  0  0  0  0  0  0  0  0
    5.5226   -1.7910    0.7492 C   0  0  0  0  0  0  0  0  0  0  0  0
    0.8209   -1.6965   -0.4034 S   0  0  0  0  0  0  0  0  0  0  0  0
   -0.7441   -1.7003    0.5188 C   0  0  0  0  0  0  0  0  0  0  0  0
   -1.3822   -0.0496    0.9014 S   0  0  0  0  0  0  0  0  0  0  0  0
   -2.1495    0.4395   -1.0350 P   0  0  0  0  0  0  0  0  0  0  0  0
   -0.9011    0.5129   -2.5356 S   0  0  0  0  0  0  0  0  0  0  0  0
   -2.9379    1.7923   -0.7528 O   0  0  0  0  0  0  0  0  0  0  0  0
   -2.3046    3.0802   -0.8425 C   0  0  0  0  0  0  0  0  0  0  0  0
   -1.4245    3.3647    0.3584 C   0  0  0  0  0  0  0  0  0  0  0  0
   -3.3102   -0.5945   -1.3016 O   0  0  0  0  0  0  0  0  0  0  0  0
   -4.5421   -0.6702   -0.5350 C   0  0  0  0  0  0  0  0  0  0  0  0
   -4.5075   -1.8324    0.4378 C   0  0  0  0  0  0  0  0  0  0  0  0
    4.2500    1.5096   -0.4743 H   0  0  0  0  0  0  0  0  0  0  0  0
    3.7743    2.5653   -1.8165 H   0  0  0  0  0  0  0  0  0  0  0  0
    3.4111    3.0310   -0.1449 H   0  0  0  0  0  0  0  0  0  0  0  0
    2.2120    0.6202   -1.6065 H   0  0  0  0  0  0  0  0  0  0  0  0
    1.3759    2.1598   -1.3150 H   0  0  0  0  0  0  0  0  0  0  0  0
    3.7485   -2.1718    1.9416 H   0  0  0  0  0  0  0  0  0  0  0  0
    3.6385   -2.7470    0.2571 H   0  0  0  0  0  0  0  0  0  0  0  0
    5.7659   -1.5492   -0.2815 H   0  0  0  0  0  0  0  0  0  0  0  0
    5.8798   -0.9930    1.3941 H   0  0  0  0  0  0  0  0  0  0  0  0
    6.0116   -2.7194    1.0249 H   0  0  0  0  0  0  0  0  0  0  0  0
   -0.5851   -2.1859    1.4808 H   0  0  0  0  0  0  0  0  0  0  0  0
   -1.4579   -2.2480   -0.0934 H   0  0  0  0  0  0  0  0  0  0  0  0
   -1.7253    3.1169   -1.7711 H   0  0  0  0  0  0  0  0  0  0  0  0
   -3.1395    3.7802   -0.8992 H   0  0  0  0  0  0  0  0  0  0  0  0
   -1.0508    4.3817    0.2960 H   0  0  0  0  0  0  0  0  0  0  0  0
   -1.9905    3.2454    1.2789 H   0  0  0  0  0  0  0  0  0  0  0  0
   -0.5777    2.6799    0.3855 H   0  0  0  0  0  0  0  0  0  0  0  0
   -4.6997    0.2781   -0.0197 H   0  0  0  0  0  0  0  0  0  0  0  0
   -5.3162   -0.8122   -1.2908 H   0  0  0  0  0  0  0  0  0  0  0  0
   -3.7714   -1.6620    1.2197 H   0  0  0  0  0  0  0  0  0  0  0  0
   -5.4865   -1.9334    0.8957 H   0  0  0  0  0  0  0  0  0  0  0  0
   -4.2663   -2.7534   -0.0864 H   0  0  0  0  0  0  0  0  0  0  0  0
  1  2  1  0  0  0  0
  2  3  1  0  0  0  0
  3  4  2  0  0  0  0
  4  5  2  0  0  0  0
  4  6  2  0  0  0  0
  6  7  1  0  0  0  0
  7  8  1  0  0  0  0
  4  9  1  0  0  0  0
  9 10  1  0  0  0  0
 10 11  1  0  0  0  0
 11 12  1  0  0  0  0
 12 13  2  0  0  0  0
 12 14  2  0  0  0  0
 14 15  1  0  0  0  0
 15 16  1  0  0  0  0
 12 17  2  0  0  0  0
 17 18  1  0  0  0  0
 18 19  1  0  0  0  0
  1 20  1  0  0  0  0
  1 21  1  0  0  0  0
  1 22  1  0  0  0  0
  2 23  1  0  0  0  0
  2 24  1  0  0  0  0
  7 25  1  0  0  0  0
  7 26  1  0  0  0  0
  8 27  1  0  0  0  0
  8 28  1  0  0  0  0
  8 29  1  0  0  0  0
 10 30  1  0  0  0  0
 10 31  1  0  0  0  0
 15 32  1  0  0  0  0
 15 33  1  0  0  0  0
 16 34  1  0  0  0  0
 16 35  1  0  0  0  0
 16 36  1  0  0  0  0
 18 37  1  0  0  0  0
 18 38  1  0  0  0  0
 19 39  1  0  0  0  0
 19 40  1  0  0  0  0
 19 41  1  0  0  0  0
M  END
