 xtb: 6.7.1 (edcfbbe)
          04092505213D

 41 40  0     0  0            999 V2000
    5.5273   -0.8090   -1.2657 C   0  0  0  0  0  0  0  0  0  0  0  0
    4.2029   -1.5410   -1.3345 C   0  0  0  0  0  0  0  0  0  0  0  0
    3.1435   -0.6575   -1.7805 O   0  0  0  0  0  0  0  0  0  0  0  0
    2.1755    0.1207   -0.8091 P   0  0  0  0  0  0  0  0  0  0  0  0
    0.9169    1.1796   -1.8698 S   0  0  0  0  0  0  0  0  0  0  0  0
    3.1920    0.9086    0.1174 O   0  0  0  0  0  0  0  0  0  0  0  0
    2.8257    1.8493    1.1445 C   0  0  0  0  0  0  0  0  0  0  0  0
    2.8250    1.1872    2.5076 C   0  0  0  0  0  0  0  0  0  0  0  0
    1.3428   -1.3933    0.4371 S   0  0  0  0  0  0  0  0  0  0  0  0
   -0.0988   -1.8023   -0.5995 C   0  0  0  0  0  0  0  0  0  0  0  0
   -1.6537   -1.8329    0.3213 S   0  0  0  0  0  0  0  0  0  0  0  0
   -2.0313    0.2648    0.4481 P   0  0  0  0  0  0  0  0  0  0  0  0
   -0.7033    1.2980    1.4475 S   0  0  0  0  0  0  0  0  0  0  0  0
   -3.4930    0.3001    1.0630 O   0  0  0  0  0  0  0  0  0  0  0  0
   -3.7237   -0.0186    2.4519 C   0  0  0  0  0  0  0  0  0  0  0  0
   -5.0918    0.5111    2.8295 C   0  0  0  0  0  0  0  0  0  0  0  0
   -2.2415    0.8143   -1.0096 O   0  0  0  0  0  0  0  0  0  0  0  0
   -3.4422    0.6890   -1.8122 C   0  0  0  0  0  0  0  0  0  0  0  0
   -3.7406   -0.7431   -2.2026 C   0  0  0  0  0  0  0  0  0  0  0  0
    6.3082   -1.5144   -0.9992 H   0  0  0  0  0  0  0  0  0  0  0  0
    5.7573   -0.3653   -2.2305 H   0  0  0  0  0  0  0  0  0  0  0  0
    5.4855   -0.0200   -0.5199 H   0  0  0  0  0  0  0  0  0  0  0  0
    3.9281   -1.9595   -0.3621 H   0  0  0  0  0  0  0  0  0  0  0  0
    4.2261   -2.3322   -2.0860 H   0  0  0  0  0  0  0  0  0  0  0  0
    3.5856    2.6307    1.0821 H   0  0  0  0  0  0  0  0  0  0  0  0
    1.8454    2.2774    0.9160 H   0  0  0  0  0  0  0  0  0  0  0  0
    2.6526    1.9451    3.2646 H   0  0  0  0  0  0  0  0  0  0  0  0
    2.0279    0.4500    2.5704 H   0  0  0  0  0  0  0  0  0  0  0  0
    3.7789    0.7008    2.6895 H   0  0  0  0  0  0  0  0  0  0  0  0
    0.0317   -2.8067   -0.9930 H   0  0  0  0  0  0  0  0  0  0  0  0
   -0.1623   -1.0584   -1.3987 H   0  0  0  0  0  0  0  0  0  0  0  0
   -3.6686   -1.1045    2.5627 H   0  0  0  0  0  0  0  0  0  0  0  0
   -2.9326    0.4442    3.0511 H   0  0  0  0  0  0  0  0  0  0  0  0
   -5.8535    0.0564    2.2029 H   0  0  0  0  0  0  0  0  0  0  0  0
   -5.2902    0.2700    3.8686 H   0  0  0  0  0  0  0  0  0  0  0  0
   -5.1243    1.5893    2.6998 H   0  0  0  0  0  0  0  0  0  0  0  0
   -4.2712    1.1249   -1.2525 H   0  0  0  0  0  0  0  0  0  0  0  0
   -3.2140    1.3046   -2.6841 H   0  0  0  0  0  0  0  0  0  0  0  0
   -4.5850   -0.7494   -2.8849 H   0  0  0  0  0  0  0  0  0  0  0  0
   -2.8813   -1.1877   -2.6992 H   0  0  0  0  0  0  0  0  0  0  0  0
   -3.9895   -1.3353   -1.3249 H   0  0  0  0  0  0  0  0  0  0  0  0
  1  2  1  0  0  0  0
  2  3  1  0  0  0  0
  3  4  2  0  0  0  0
  4  5  2  0  0  0  0
  4  6  2  0  0  0  0
  6  7  1  0  0  0  0
  7  8  1  0  0  0  0
  4  9  1  0  0  0  0
  9 10  1  0  0  0  0
 10 11  1  0  0  0  0
 11 12  1  0  0  0  0
 12 13  2  0  0  0  0
 12 14  2  0  0  0  0
 14 15  1  0  0  0  0
 15 16  1  0  0  0  0
 12 17  2  0  0  0  0
 17 18  1  0  0  0  0
 18 19  1  0  0  0  0
  1 20  1  0  0  0  0
  1 21  1  0  0  0  0
  1 22  1  0  0  0  0
  2 23  1  0  0  0  0
  2 24  1  0  0  0  0
  7 25  1  0  0  0  0
  7 26  1  0  0  0  0
  8 27  1  0  0  0  0
  8 28  1  0  0  0  0
  8 29  1  0  0  0  0
 10 30  1  0  0  0  0
 10 31  1  0  0  0  0
 15 32  1  0  0  0  0
 15 33  1  0  0  0  0
 16 34  1  0  0  0  0
 16 35  1  0  0  0  0
 16 36  1  0  0  0  0
 18 37  1  0  0  0  0
 18 38  1  0  0  0  0
 19 39  1  0  0  0  0
 19 40  1  0  0  0  0
 19 41  1  0  0  0  0
M  END
