 xtb: 6.7.1 (edcfbbe)
          04092507313D

 38 37  0     0  0            999 V2000
    3.3217   -1.5642    1.5938 C   0  0  0  0  0  0  0  0  0  0  0  0
    3.0448   -2.1923    0.2384 C   0  0  0  0  0  0  0  0  0  0  0  0
    2.7080   -1.1749   -0.7235 O   0  0  0  0  0  0  0  0  0  0  0  0
    1.4665   -1.0404   -1.1251 C   0  0  0  0  0  0  0  0  0  0  0  0
    0.5364   -1.7354   -0.7612 O   0  0  0  0  0  0  0  0  0  0  0  0
    1.3212    0.0795   -2.1337 C   0  0  0  0  0  0  0  0  0  0  0  0
    0.1761    1.0166   -1.7624 C   0  0  0  0  0  0  0  0  0  0  0  0
    0.0433    1.7666   -2.5485 H   0  0  0  0  0  0  0  0  0  0  0  0
    0.3653    1.7560   -0.4494 C   0  0  0  0  0  0  0  0  0  0  0  0
   -0.5697    2.2395    0.1601 O   0  0  0  0  0  0  0  0  0  0  0  0
    1.6180    1.8361   -0.0967 O   0  0  0  0  0  0  0  0  0  0  0  0
    1.9382    2.5027    1.1425 C   0  0  0  0  0  0  0  0  0  0  0  0
    3.4333    2.7457    1.1651 C   0  0  0  0  0  0  0  0  0  0  0  0
   -1.4458    0.1750   -1.6880 S   0  0  0  0  0  0  0  0  0  0  0  0
   -1.6704   -0.3147    0.3748 P   0  0  0  0  0  0  0  0  0  0  0  0
   -0.2688   -0.3925    1.7403 S   0  0  0  0  0  0  0  0  0  0  0  0
   -2.8018    0.6589    0.9080 O   0  0  0  0  0  0  0  0  0  0  0  0
   -4.0405    0.9001    0.2205 C   0  0  0  0  0  0  0  0  0  0  0  0
   -2.5410   -1.6553    0.2612 O   0  0  0  0  0  0  0  0  0  0  0  0
   -2.0289   -2.9520   -0.0462 C   0  0  0  0  0  0  0  0  0  0  0  0
    3.6233   -2.3382    2.2916 H   0  0  0  0  0  0  0  0  0  0  0  0
    4.1150   -0.8275    1.5101 H   0  0  0  0  0  0  0  0  0  0  0  0
    2.4225   -1.0812    1.9728 H   0  0  0  0  0  0  0  0  0  0  0  0
    2.2179   -2.9048    0.3003 H   0  0  0  0  0  0  0  0  0  0  0  0
    3.9363   -2.6783   -0.1620 H   0  0  0  0  0  0  0  0  0  0  0  0
    1.0981   -0.3693   -3.1035 H   0  0  0  0  0  0  0  0  0  0  0  0
    2.2572    0.6338   -2.1844 H   0  0  0  0  0  0  0  0  0  0  0  0
    1.3633    3.4321    1.1934 H   0  0  0  0  0  0  0  0  0  0  0  0
    1.6143    1.8501    1.9601 H   0  0  0  0  0  0  0  0  0  0  0  0
    3.9601    1.8024    1.0599 H   0  0  0  0  0  0  0  0  0  0  0  0
    3.7199    3.4045    0.3511 H   0  0  0  0  0  0  0  0  0  0  0  0
    3.7038    3.2033    2.1105 H   0  0  0  0  0  0  0  0  0  0  0  0
   -4.5380    1.6729    0.8006 H   0  0  0  0  0  0  0  0  0  0  0  0
   -4.6332   -0.0129    0.1966 H   0  0  0  0  0  0  0  0  0  0  0  0
   -3.8440    1.2481   -0.7940 H   0  0  0  0  0  0  0  0  0  0  0  0
   -2.8493   -3.6384    0.1491 H   0  0  0  0  0  0  0  0  0  0  0  0
   -1.1745   -3.1782    0.5910 H   0  0  0  0  0  0  0  0  0  0  0  0
   -1.7221   -2.9949   -1.0900 H   0  0  0  0  0  0  0  0  0  0  0  0
  1  2  1  0  0  0  0
  2  3  1  0  0  0  0
  3  4  4  0  0  0  0
  4  5  2  0  0  0  0
  4  6  1  0  0  0  0
  6  7  1  0  0  0  0
  7  8  1  0  0  0  0
  7  9  1  0  0  0  0
  9 10  2  0  0  0  0
  9 11  4  0  0  0  0
 11 12  1  0  0  0  0
 12 13  1  0  0  0  0
  7 14  1  0  0  0  0
 14 15  1  0  0  0  0
 15 16  2  0  0  0  0
 15 17  2  0  0  0  0
 17 18  1  0  0  0  0
 15 19  1  0  0  0  0
 19 20  1  0  0  0  0
  1 21  1  0  0  0  0
  1 22  1  0  0  0  0
  1 23  1  0  0  0  0
  2 24  1  0  0  0  0
  2 25  1  0  0  0  0
  6 26  1  0  0  0  0
  6 27  1  0  0  0  0
 12 28  1  0  0  0  0
 12 29  1  0  0  0  0
 13 30  1  0  0  0  0
 13 31  1  0  0  0  0
 13 32  1  0  0  0  0
 18 33  1  0  0  0  0
 18 34  1  0  0  0  0
 18 35  1  0  0  0  0
 20 36  1  0  0  0  0
 20 37  1  0  0  0  0
 20 38  1  0  0  0  0
M  END
