 xtb: 6.7.1 (edcfbbe)
          04092505213D

 41 40  0     0  0            999 V2000
    1.8477   -2.2630    2.8383 C   0  0  0  0  0  0  0  0  0  0  0  0
    0.7618   -1.5830    2.0284 C   0  0  0  0  0  0  0  0  0  0  0  0
    1.2920   -0.4623    1.3040 O   0  0  0  0  0  0  0  0  0  0  0  0
    1.9019   -0.5885   -0.1638 P   0  0  0  0  0  0  0  0  0  0  0  0
    1.4882   -2.2221   -1.1568 S   0  0  0  0  0  0  0  0  0  0  0  0
    3.4773   -0.4677    0.0189 O   0  0  0  0  0  0  0  0  0  0  0  0
    4.1504    0.3014    1.0412 C   0  0  0  0  0  0  0  0  0  0  0  0
    3.7307    1.7557    1.0596 C   0  0  0  0  0  0  0  0  0  0  0  0
    1.3936    1.2351   -1.1156 S   0  0  0  0  0  0  0  0  0  0  0  0
    0.2119    0.6472   -2.3559 C   0  0  0  0  0  0  0  0  0  0  0  0
   -1.4915    1.2586   -2.1460 S   0  0  0  0  0  0  0  0  0  0  0  0
   -1.9781    0.4741   -0.2338 P   0  0  0  0  0  0  0  0  0  0  0  0
   -3.8856    0.6240    0.1735 S   0  0  0  0  0  0  0  0  0  0  0  0
   -0.9739    1.1551    0.7846 O   0  0  0  0  0  0  0  0  0  0  0  0
   -1.1281    2.5507    1.1204 C   0  0  0  0  0  0  0  0  0  0  0  0
   -1.7775    2.6959    2.4818 C   0  0  0  0  0  0  0  0  0  0  0  0
   -1.3192   -0.9703   -0.1932 O   0  0  0  0  0  0  0  0  0  0  0  0
   -2.0499   -2.1047   -0.7118 C   0  0  0  0  0  0  0  0  0  0  0  0
   -2.7655   -2.8391    0.4036 C   0  0  0  0  0  0  0  0  0  0  0  0
    1.4156   -3.0895    3.3937 H   0  0  0  0  0  0  0  0  0  0  0  0
    2.6171   -2.6508    2.1709 H   0  0  0  0  0  0  0  0  0  0  0  0
    2.2978   -1.5617    3.5359 H   0  0  0  0  0  0  0  0  0  0  0  0
   -0.0206   -1.1610    2.6612 H   0  0  0  0  0  0  0  0  0  0  0  0
    0.3165   -2.2841    1.3163 H   0  0  0  0  0  0  0  0  0  0  0  0
    3.9543   -0.1693    2.0074 H   0  0  0  0  0  0  0  0  0  0  0  0
    5.2046    0.1884    0.7835 H   0  0  0  0  0  0  0  0  0  0  0  0
    4.3183    2.2860    1.8028 H   0  0  0  0  0  0  0  0  0  0  0  0
    3.8876    2.2122    0.0854 H   0  0  0  0  0  0  0  0  0  0  0  0
    2.6759    1.8347    1.3189 H   0  0  0  0  0  0  0  0  0  0  0  0
    0.2229   -0.4458   -2.3573 H   0  0  0  0  0  0  0  0  0  0  0  0
    0.5229    1.0397   -3.3209 H   0  0  0  0  0  0  0  0  0  0  0  0
   -0.1158    2.9611    1.1086 H   0  0  0  0  0  0  0  0  0  0  0  0
   -1.7261    3.0462    0.3475 H   0  0  0  0  0  0  0  0  0  0  0  0
   -1.8429    3.7489    2.7358 H   0  0  0  0  0  0  0  0  0  0  0  0
   -2.7789    2.2708    2.4636 H   0  0  0  0  0  0  0  0  0  0  0  0
   -1.1889    2.1786    3.2340 H   0  0  0  0  0  0  0  0  0  0  0  0
   -2.7633   -1.7593   -1.4670 H   0  0  0  0  0  0  0  0  0  0  0  0
   -1.2919   -2.7341   -1.1854 H   0  0  0  0  0  0  0  0  0  0  0  0
   -2.0555   -3.1663    1.1579 H   0  0  0  0  0  0  0  0  0  0  0  0
   -3.5010   -2.1859    0.8685 H   0  0  0  0  0  0  0  0  0  0  0  0
   -3.2714   -3.7044   -0.0126 H   0  0  0  0  0  0  0  0  0  0  0  0
  1  2  1  0  0  0  0
  2  3  1  0  0  0  0
  3  4  1  0  0  0  0
  4  5  2  0  0  0  0
  4  6  2  0  0  0  0
  6  7  1  0  0  0  0
  7  8  1  0  0  0  0
  4  9  1  0  0  0  0
  9 10  1  0  0  0  0
 10 11  1  0  0  0  0
 11 12  1  0  0  0  0
 12 13  2  0  0  0  0
 12 14  2  0  0  0  0
 14 15  1  0  0  0  0
 15 16  1  0  0  0  0
 12 17  2  0  0  0  0
 17 18  1  0  0  0  0
 18 19  1  0  0  0  0
  1 20  1  0  0  0  0
  1 21  1  0  0  0  0
  1 22  1  0  0  0  0
  2 23  1  0  0  0  0
  2 24  1  0  0  0  0
  7 25  1  0  0  0  0
  7 26  1  0  0  0  0
  8 27  1  0  0  0  0
  8 28  1  0  0  0  0
  8 29  1  0  0  0  0
 10 30  1  0  0  0  0
 10 31  1  0  0  0  0
 15 32  1  0  0  0  0
 15 33  1  0  0  0  0
 16 34  1  0  0  0  0
 16 35  1  0  0  0  0
 16 36  1  0  0  0  0
 18 37  1  0  0  0  0
 18 38  1  0  0  0  0
 19 39  1  0  0  0  0
 19 40  1  0  0  0  0
 19 41  1  0  0  0  0
M  END
