 xtb: 6.7.1 (edcfbbe)
          04092505213D

 41 40  0     0  0            999 V2000
    4.1402   -0.9477   -2.6279 C   0  0  0  0  0  0  0  0  0  0  0  0
    4.5080   -1.4376   -1.2423 C   0  0  0  0  0  0  0  0  0  0  0  0
    3.3490   -1.6532   -0.4181 O   0  0  0  0  0  0  0  0  0  0  0  0
    2.4241   -0.4624    0.0796 P   0  0  0  0  0  0  0  0  0  0  0  0
    3.3694    1.1809    0.5952 S   0  0  0  0  0  0  0  0  0  0  0  0
    1.5743   -1.1624    1.2181 O   0  0  0  0  0  0  0  0  0  0  0  0
    1.9665   -1.1230    2.6048 C   0  0  0  0  0  0  0  0  0  0  0  0
    3.2117   -1.9465    2.8575 C   0  0  0  0  0  0  0  0  0  0  0  0
    0.9325   -0.2854   -1.4078 S   0  0  0  0  0  0  0  0  0  0  0  0
    0.2828    1.3067   -0.8372 C   0  0  0  0  0  0  0  0  0  0  0  0
   -0.6695    1.1863    0.7061 S   0  0  0  0  0  0  0  0  0  0  0  0
   -2.5249    0.6121   -0.1207 P   0  0  0  0  0  0  0  0  0  0  0  0
   -2.7065    0.6321   -2.0769 S   0  0  0  0  0  0  0  0  0  0  0  0
   -3.4240    1.6379    0.6777 O   0  0  0  0  0  0  0  0  0  0  0  0
   -4.8535    1.6947    0.4591 C   0  0  0  0  0  0  0  0  0  0  0  0
   -5.3427    3.0466    0.9355 C   0  0  0  0  0  0  0  0  0  0  0  0
   -2.9730   -0.7665    0.5451 O   0  0  0  0  0  0  0  0  0  0  0  0
   -2.7103   -2.0565   -0.0328 C   0  0  0  0  0  0  0  0  0  0  0  0
   -1.4800   -2.6911    0.5836 C   0  0  0  0  0  0  0  0  0  0  0  0
    3.7151    0.0536   -2.5687 H   0  0  0  0  0  0  0  0  0  0  0  0
    5.0313   -0.9148   -3.2467 H   0  0  0  0  0  0  0  0  0  0  0  0
    3.4080   -1.6107   -3.0819 H   0  0  0  0  0  0  0  0  0  0  0  0
    5.1592   -0.7145   -0.7406 H   0  0  0  0  0  0  0  0  0  0  0  0
    4.9914   -2.4149   -1.2748 H   0  0  0  0  0  0  0  0  0  0  0  0
    2.1245   -0.0779    2.8898 H   0  0  0  0  0  0  0  0  0  0  0  0
    1.1000   -1.5213    3.1338 H   0  0  0  0  0  0  0  0  0  0  0  0
    3.4145   -1.9763    3.9235 H   0  0  0  0  0  0  0  0  0  0  0  0
    3.0744   -2.9580    2.4846 H   0  0  0  0  0  0  0  0  0  0  0  0
    4.0625   -1.4956    2.3481 H   0  0  0  0  0  0  0  0  0  0  0  0
   -0.3573    1.6845   -1.6337 H   0  0  0  0  0  0  0  0  0  0  0  0
    1.1146    1.9819   -0.6364 H   0  0  0  0  0  0  0  0  0  0  0  0
   -5.0488    1.5503   -0.6091 H   0  0  0  0  0  0  0  0  0  0  0  0
   -5.3135    0.8790    1.0217 H   0  0  0  0  0  0  0  0  0  0  0  0
   -4.8696    3.8383    0.3615 H   0  0  0  0  0  0  0  0  0  0  0  0
   -6.4186    3.1027    0.8059 H   0  0  0  0  0  0  0  0  0  0  0  0
   -5.0968    3.1797    1.9849 H   0  0  0  0  0  0  0  0  0  0  0  0
   -3.6054   -2.6431    0.1832 H   0  0  0  0  0  0  0  0  0  0  0  0
   -2.6009   -1.9432   -1.1170 H   0  0  0  0  0  0  0  0  0  0  0  0
   -1.3562   -3.6918    0.1823 H   0  0  0  0  0  0  0  0  0  0  0  0
   -0.5898   -2.1094    0.3547 H   0  0  0  0  0  0  0  0  0  0  0  0
   -1.5922   -2.7468    1.6631 H   0  0  0  0  0  0  0  0  0  0  0  0
  1  2  1  0  0  0  0
  2  3  1  0  0  0  0
  3  4  2  0  0  0  0
  4  5  2  0  0  0  0
  4  6  2  0  0  0  0
  6  7  1  0  0  0  0
  7  8  1  0  0  0  0
  4  9  1  0  0  0  0
  9 10  1  0  0  0  0
 10 11  1  0  0  0  0
 11 12  1  0  0  0  0
 12 13  2  0  0  0  0
 12 14  2  0  0  0  0
 14 15  1  0  0  0  0
 15 16  1  0  0  0  0
 12 17  2  0  0  0  0
 17 18  1  0  0  0  0
 18 19  1  0  0  0  0
  1 20  1  0  0  0  0
  1 21  1  0  0  0  0
  1 22  1  0  0  0  0
  2 23  1  0  0  0  0
  2 24  1  0  0  0  0
  7 25  1  0  0  0  0
  7 26  1  0  0  0  0
  8 27  1  0  0  0  0
  8 28  1  0  0  0  0
  8 29  1  0  0  0  0
 10 30  1  0  0  0  0
 10 31  1  0  0  0  0
 15 32  1  0  0  0  0
 15 33  1  0  0  0  0
 16 34  1  0  0  0  0
 16 35  1  0  0  0  0
 16 36  1  0  0  0  0
 18 37  1  0  0  0  0
 18 38  1  0  0  0  0
 19 39  1  0  0  0  0
 19 40  1  0  0  0  0
 19 41  1  0  0  0  0
M  END
