 xtb: 6.7.1 (edcfbbe)
          04092505203D

 41 40  0     0  0            999 V2000
    5.4324   -1.9311   -1.0935 C   0  0  0  0  0  0  0  0  0  0  0  0
    4.2856   -0.9770   -1.3581 C   0  0  0  0  0  0  0  0  0  0  0  0
    3.4526   -0.9512   -0.1793 O   0  0  0  0  0  0  0  0  0  0  0  0
    2.3572    0.1801    0.0227 P   0  0  0  0  0  0  0  0  0  0  0  0
    2.9892    2.0222   -0.1265 S   0  0  0  0  0  0  0  0  0  0  0  0
    1.7799   -0.1470    1.4489 O   0  0  0  0  0  0  0  0  0  0  0  0
    1.3879   -1.4801    1.8604 C   0  0  0  0  0  0  0  0  0  0  0  0
    2.4786   -2.1169    2.6959 C   0  0  0  0  0  0  0  0  0  0  0  0
    0.8623   -0.3841   -1.4001 S   0  0  0  0  0  0  0  0  0  0  0  0
    0.0174    1.2135   -1.4318 C   0  0  0  0  0  0  0  0  0  0  0  0
   -0.7750    1.6255    0.1461 S   0  0  0  0  0  0  0  0  0  0  0  0
   -2.3232    0.1918   -0.0019 P   0  0  0  0  0  0  0  0  0  0  0  0
   -3.1068   -0.0875   -1.7803 S   0  0  0  0  0  0  0  0  0  0  0  0
   -3.3490    0.5990    1.1400 O   0  0  0  0  0  0  0  0  0  0  0  0
   -4.4533    1.4896    0.9040 C   0  0  0  0  0  0  0  0  0  0  0  0
   -3.9955    2.9079    0.6318 C   0  0  0  0  0  0  0  0  0  0  0  0
   -1.6012   -1.0615    0.6460 O   0  0  0  0  0  0  0  0  0  0  0  0
   -2.0496   -2.4102    0.3859 C   0  0  0  0  0  0  0  0  0  0  0  0
   -3.4059   -2.6807    1.0019 C   0  0  0  0  0  0  0  0  0  0  0  0
    6.0162   -1.5870   -0.2445 H   0  0  0  0  0  0  0  0  0  0  0  0
    5.0490   -2.9248   -0.8808 H   0  0  0  0  0  0  0  0  0  0  0  0
    6.0688   -1.9726   -1.9712 H   0  0  0  0  0  0  0  0  0  0  0  0
    3.6734   -1.3087   -2.2010 H   0  0  0  0  0  0  0  0  0  0  0  0
    4.6429    0.0394   -1.5523 H   0  0  0  0  0  0  0  0  0  0  0  0
    0.4718   -1.3313    2.4355 H   0  0  0  0  0  0  0  0  0  0  0  0
    1.1713   -2.0745    0.9683 H   0  0  0  0  0  0  0  0  0  0  0  0
    2.7080   -1.4852    3.5496 H   0  0  0  0  0  0  0  0  0  0  0  0
    2.1389   -3.0863    3.0468 H   0  0  0  0  0  0  0  0  0  0  0  0
    3.3794   -2.2436    2.1014 H   0  0  0  0  0  0  0  0  0  0  0  0
   -0.7364    1.1564   -2.2173 H   0  0  0  0  0  0  0  0  0  0  0  0
    0.7447    2.0010   -1.6288 H   0  0  0  0  0  0  0  0  0  0  0  0
   -5.0326    1.1051    0.0583 H   0  0  0  0  0  0  0  0  0  0  0  0
   -5.0424    1.4249    1.8197 H   0  0  0  0  0  0  0  0  0  0  0  0
   -3.3306    3.2494    1.4215 H   0  0  0  0  0  0  0  0  0  0  0  0
   -3.4612    2.9523   -0.3166 H   0  0  0  0  0  0  0  0  0  0  0  0
   -4.8600    3.5620    0.5795 H   0  0  0  0  0  0  0  0  0  0  0  0
   -2.0775   -2.5607   -0.6980 H   0  0  0  0  0  0  0  0  0  0  0  0
   -1.2730   -3.0360    0.8271 H   0  0  0  0  0  0  0  0  0  0  0  0
   -4.1638   -2.0719    0.5102 H   0  0  0  0  0  0  0  0  0  0  0  0
   -3.6574   -3.7285    0.8718 H   0  0  0  0  0  0  0  0  0  0  0  0
   -3.3937   -2.4382    2.0612 H   0  0  0  0  0  0  0  0  0  0  0  0
  1  2  1  0  0  0  0
  2  3  1  0  0  0  0
  3  4  2  0  0  0  0
  4  5  2  0  0  0  0
  4  6  2  0  0  0  0
  6  7  1  0  0  0  0
  7  8  1  0  0  0  0
  4  9  1  0  0  0  0
  9 10  1  0  0  0  0
 10 11  1  0  0  0  0
 11 12  1  0  0  0  0
 12 13  2  0  0  0  0
 12 14  2  0  0  0  0
 14 15  1  0  0  0  0
 15 16  1  0  0  0  0
 12 17  2  0  0  0  0
 17 18  1  0  0  0  0
 18 19  1  0  0  0  0
  1 20  1  0  0  0  0
  1 21  1  0  0  0  0
  1 22  1  0  0  0  0
  2 23  1  0  0  0  0
  2 24  1  0  0  0  0
  7 25  1  0  0  0  0
  7 26  1  0  0  0  0
  8 27  1  0  0  0  0
  8 28  1  0  0  0  0
  8 29  1  0  0  0  0
 10 30  1  0  0  0  0
 10 31  1  0  0  0  0
 15 32  1  0  0  0  0
 15 33  1  0  0  0  0
 16 34  1  0  0  0  0
 16 35  1  0  0  0  0
 16 36  1  0  0  0  0
 18 37  1  0  0  0  0
 18 38  1  0  0  0  0
 19 39  1  0  0  0  0
 19 40  1  0  0  0  0
 19 41  1  0  0  0  0
M  END
