 xtb: 6.7.1 (edcfbbe)
          04092505213D

 41 40  0     0  0            999 V2000
    4.2937    0.4131   -2.2938 C   0  0  0  0  0  0  0  0  0  0  0  0
    4.5562    0.0238   -0.8529 C   0  0  0  0  0  0  0  0  0  0  0  0
    3.3625   -0.4293   -0.1951 O   0  0  0  0  0  0  0  0  0  0  0  0
    2.1708    0.5743    0.1694 P   0  0  0  0  0  0  0  0  0  0  0  0
    2.7602    2.3503    0.7490 S   0  0  0  0  0  0  0  0  0  0  0  0
    1.3727   -0.2811    1.2328 O   0  0  0  0  0  0  0  0  0  0  0  0
    1.8615   -0.4578    2.5808 C   0  0  0  0  0  0  0  0  0  0  0  0
    0.7593   -1.1236    3.3778 C   0  0  0  0  0  0  0  0  0  0  0  0
    0.8101    0.5008   -1.4370 S   0  0  0  0  0  0  0  0  0  0  0  0
    0.4988   -1.2832   -1.5307 C   0  0  0  0  0  0  0  0  0  0  0  0
   -0.5723   -1.9402   -0.2096 S   0  0  0  0  0  0  0  0  0  0  0  0
   -2.0473   -0.4517   -0.2132 P   0  0  0  0  0  0  0  0  0  0  0  0
   -2.6664    0.2300   -1.9503 S   0  0  0  0  0  0  0  0  0  0  0  0
   -1.4515    0.5929    0.8216 O   0  0  0  0  0  0  0  0  0  0  0  0
   -2.0625    1.8878    1.0203 C   0  0  0  0  0  0  0  0  0  0  0  0
   -1.3142    2.9601    0.2537 C   0  0  0  0  0  0  0  0  0  0  0  0
   -3.2089   -1.0976    0.6618 O   0  0  0  0  0  0  0  0  0  0  0  0
   -4.1875   -1.9970    0.1016 C   0  0  0  0  0  0  0  0  0  0  0  0
   -5.4397   -1.9213    0.9519 C   0  0  0  0  0  0  0  0  0  0  0  0
    5.2300    0.6904   -2.7672 H   0  0  0  0  0  0  0  0  0  0  0  0
    3.8463   -0.4135   -2.8397 H   0  0  0  0  0  0  0  0  0  0  0  0
    3.6152    1.2655   -2.3285 H   0  0  0  0  0  0  0  0  0  0  0  0
    4.9562    0.8755   -0.2937 H   0  0  0  0  0  0  0  0  0  0  0  0
    5.2387   -0.8240   -0.7792 H   0  0  0  0  0  0  0  0  0  0  0  0
    2.7605   -1.0779    2.5415 H   0  0  0  0  0  0  0  0  0  0  0  0
    2.1209    0.5265    2.9851 H   0  0  0  0  0  0  0  0  0  0  0  0
    0.5279   -2.0953    2.9501 H   0  0  0  0  0  0  0  0  0  0  0  0
    1.0837   -1.2458    4.4061 H   0  0  0  0  0  0  0  0  0  0  0  0
   -0.1384   -0.5115    3.3513 H   0  0  0  0  0  0  0  0  0  0  0  0
    1.4354   -1.8318   -1.4644 H   0  0  0  0  0  0  0  0  0  0  0  0
    0.0132   -1.4360   -2.4931 H   0  0  0  0  0  0  0  0  0  0  0  0
   -3.1088    1.8430    0.7057 H   0  0  0  0  0  0  0  0  0  0  0  0
   -2.0101    2.0589    2.0968 H   0  0  0  0  0  0  0  0  0  0  0  0
   -0.2640    2.9683    0.5395 H   0  0  0  0  0  0  0  0  0  0  0  0
   -1.3801    2.7762   -0.8171 H   0  0  0  0  0  0  0  0  0  0  0  0
   -1.7489    3.9294    0.4754 H   0  0  0  0  0  0  0  0  0  0  0  0
   -4.3863   -1.6959   -0.9326 H   0  0  0  0  0  0  0  0  0  0  0  0
   -3.7606   -3.0028    0.1086 H   0  0  0  0  0  0  0  0  0  0  0  0
   -5.8543   -0.9174    0.9222 H   0  0  0  0  0  0  0  0  0  0  0  0
   -6.1732   -2.6219    0.5666 H   0  0  0  0  0  0  0  0  0  0  0  0
   -5.2043   -2.1747    1.9815 H   0  0  0  0  0  0  0  0  0  0  0  0
  1  2  1  0  0  0  0
  2  3  1  0  0  0  0
  3  4  1  0  0  0  0
  4  5  2  0  0  0  0
  4  6  2  0  0  0  0
  6  7  1  0  0  0  0
  7  8  1  0  0  0  0
  4  9  1  0  0  0  0
  9 10  1  0  0  0  0
 10 11  1  0  0  0  0
 11 12  1  0  0  0  0
 12 13  2  0  0  0  0
 12 14  2  0  0  0  0
 14 15  1  0  0  0  0
 15 16  1  0  0  0  0
 12 17  2  0  0  0  0
 17 18  1  0  0  0  0
 18 19  1  0  0  0  0
  1 20  1  0  0  0  0
  1 21  1  0  0  0  0
  1 22  1  0  0  0  0
  2 23  1  0  0  0  0
  2 24  1  0  0  0  0
  7 25  1  0  0  0  0
  7 26  1  0  0  0  0
  8 27  1  0  0  0  0
  8 28  1  0  0  0  0
  8 29  1  0  0  0  0
 10 30  1  0  0  0  0
 10 31  1  0  0  0  0
 15 32  1  0  0  0  0
 15 33  1  0  0  0  0
 16 34  1  0  0  0  0
 16 35  1  0  0  0  0
 16 36  1  0  0  0  0
 18 37  1  0  0  0  0
 18 38  1  0  0  0  0
 19 39  1  0  0  0  0
 19 40  1  0  0  0  0
 19 41  1  0  0  0  0
M  END
