 xtb: 6.7.1 (edcfbbe)
          04092505213D

 41 40  0     0  0            999 V2000
    1.6405   -1.4711   -2.3739 C   0  0  0  0  0  0  0  0  0  0  0  0
    2.9387   -0.7787   -2.0112 C   0  0  0  0  0  0  0  0  0  0  0  0
    2.7614    0.1833   -0.9443 O   0  0  0  0  0  0  0  0  0  0  0  0
    2.6532   -0.1153    0.5997 P   0  0  0  0  0  0  0  0  0  0  0  0
    2.9532    1.5591    1.5724 S   0  0  0  0  0  0  0  0  0  0  0  0
    3.6910   -1.3036    0.7726 O   0  0  0  0  0  0  0  0  0  0  0  0
    3.7487   -2.1970    1.9015 C   0  0  0  0  0  0  0  0  0  0  0  0
    3.8940   -1.4660    3.2193 C   0  0  0  0  0  0  0  0  0  0  0  0
    0.7760   -1.0386    1.0372 S   0  0  0  0  0  0  0  0  0  0  0  0
   -0.1725    0.4917    1.1154 C   0  0  0  0  0  0  0  0  0  0  0  0
   -0.5532    1.1621   -0.5341 S   0  0  0  0  0  0  0  0  0  0  0  0
   -2.5589    0.4375   -0.6507 P   0  0  0  0  0  0  0  0  0  0  0  0
   -3.4497    0.7982   -2.3550 S   0  0  0  0  0  0  0  0  0  0  0  0
   -3.2777    0.9752    0.6571 O   0  0  0  0  0  0  0  0  0  0  0  0
   -4.0306    2.1999    0.6468 C   0  0  0  0  0  0  0  0  0  0  0  0
   -3.1314    3.4171    0.5543 C   0  0  0  0  0  0  0  0  0  0  0  0
   -2.4551   -1.0678   -0.1658 O   0  0  0  0  0  0  0  0  0  0  0  0
   -2.0109   -2.1100   -1.0589 C   0  0  0  0  0  0  0  0  0  0  0  0
   -3.2001   -2.8643   -1.6193 C   0  0  0  0  0  0  0  0  0  0  0  0
    1.3120   -2.1210   -1.5662 H   0  0  0  0  0  0  0  0  0  0  0  0
    0.8696   -0.7291   -2.5730 H   0  0  0  0  0  0  0  0  0  0  0  0
    1.7955   -2.0681   -3.2671 H   0  0  0  0  0  0  0  0  0  0  0  0
    3.3063   -0.1687   -2.8380 H   0  0  0  0  0  0  0  0  0  0  0  0
    3.7026   -1.4976   -1.7107 H   0  0  0  0  0  0  0  0  0  0  0  0
    2.8439   -2.8106    1.8971 H   0  0  0  0  0  0  0  0  0  0  0  0
    4.6214   -2.8179    1.6915 H   0  0  0  0  0  0  0  0  0  0  0  0
    3.0092   -0.8619    3.4144 H   0  0  0  0  0  0  0  0  0  0  0  0
    4.0138   -2.1878    4.0207 H   0  0  0  0  0  0  0  0  0  0  0  0
    4.7587   -0.8071    3.1952 H   0  0  0  0  0  0  0  0  0  0  0  0
    0.4250    1.2422    1.6367 H   0  0  0  0  0  0  0  0  0  0  0  0
   -1.0998    0.2781    1.6416 H   0  0  0  0  0  0  0  0  0  0  0  0
   -4.7282    2.1740   -0.1966 H   0  0  0  0  0  0  0  0  0  0  0  0
   -4.5840    2.1776    1.5866 H   0  0  0  0  0  0  0  0  0  0  0  0
   -2.6114    3.4238   -0.4036 H   0  0  0  0  0  0  0  0  0  0  0  0
   -3.7344    4.3160    0.6318 H   0  0  0  0  0  0  0  0  0  0  0  0
   -2.3944    3.4105    1.3539 H   0  0  0  0  0  0  0  0  0  0  0  0
   -1.4172   -1.6712   -1.8669 H   0  0  0  0  0  0  0  0  0  0  0  0
   -1.3775   -2.7541   -0.4452 H   0  0  0  0  0  0  0  0  0  0  0  0
   -2.8466   -3.6831   -2.2374 H   0  0  0  0  0  0  0  0  0  0  0  0
   -3.8069   -3.2576   -0.8089 H   0  0  0  0  0  0  0  0  0  0  0  0
   -3.8117   -2.1989   -2.2251 H   0  0  0  0  0  0  0  0  0  0  0  0
  1  2  1  0  0  0  0
  2  3  1  0  0  0  0
  3  4  2  0  0  0  0
  4  5  2  0  0  0  0
  4  6  2  0  0  0  0
  6  7  1  0  0  0  0
  7  8  1  0  0  0  0
  4  9  1  0  0  0  0
  9 10  1  0  0  0  0
 10 11  1  0  0  0  0
 11 12  1  0  0  0  0
 12 13  2  0  0  0  0
 12 14  2  0  0  0  0
 14 15  1  0  0  0  0
 15 16  1  0  0  0  0
 12 17  2  0  0  0  0
 17 18  1  0  0  0  0
 18 19  1  0  0  0  0
  1 20  1  0  0  0  0
  1 21  1  0  0  0  0
  1 22  1  0  0  0  0
  2 23  1  0  0  0  0
  2 24  1  0  0  0  0
  7 25  1  0  0  0  0
  7 26  1  0  0  0  0
  8 27  1  0  0  0  0
  8 28  1  0  0  0  0
  8 29  1  0  0  0  0
 10 30  1  0  0  0  0
 10 31  1  0  0  0  0
 15 32  1  0  0  0  0
 15 33  1  0  0  0  0
 16 34  1  0  0  0  0
 16 35  1  0  0  0  0
 16 36  1  0  0  0  0
 18 37  1  0  0  0  0
 18 38  1  0  0  0  0
 19 39  1  0  0  0  0
 19 40  1  0  0  0  0
 19 41  1  0  0  0  0
M  END
