 xtb: 6.7.1 (edcfbbe)
          04092505203D

 41 40  0     0  0            999 V2000
    3.1420   -1.2504   -2.4906 C   0  0  0  0  0  0  0  0  0  0  0  0
    3.3381    0.2329   -2.2632 C   0  0  0  0  0  0  0  0  0  0  0  0
    2.3514    0.7878   -1.3605 O   0  0  0  0  0  0  0  0  0  0  0  0
    2.1586    0.3956    0.1495 P   0  0  0  0  0  0  0  0  0  0  0  0
    1.2053    1.7649    1.1763 S   0  0  0  0  0  0  0  0  0  0  0  0
    3.6779    0.1927    0.5983 O   0  0  0  0  0  0  0  0  0  0  0  0
    4.1170    0.2432    1.9657 C   0  0  0  0  0  0  0  0  0  0  0  0
    3.6088   -0.9259    2.7851 C   0  0  0  0  0  0  0  0  0  0  0  0
    1.3076   -1.5593    0.2356 S   0  0  0  0  0  0  0  0  0  0  0  0
    0.0136   -1.2920    1.4816 C   0  0  0  0  0  0  0  0  0  0  0  0
   -1.6830   -1.5162    0.8730 S   0  0  0  0  0  0  0  0  0  0  0  0
   -1.9382    0.1743   -0.3872 P   0  0  0  0  0  0  0  0  0  0  0  0
   -0.6770    0.4194   -1.8663 S   0  0  0  0  0  0  0  0  0  0  0  0
   -2.0196    1.4531    0.5230 O   0  0  0  0  0  0  0  0  0  0  0  0
   -2.6280    1.5584    1.8340 C   0  0  0  0  0  0  0  0  0  0  0  0
   -4.0991    1.2055    1.8317 C   0  0  0  0  0  0  0  0  0  0  0  0
   -3.4355   -0.0315   -0.8744 O   0  0  0  0  0  0  0  0  0  0  0  0
   -3.7733   -1.0009   -1.8860 C   0  0  0  0  0  0  0  0  0  0  0  0
   -5.0879   -0.5844   -2.5141 C   0  0  0  0  0  0  0  0  0  0  0  0
    3.3404   -1.8049   -1.5744 H   0  0  0  0  0  0  0  0  0  0  0  0
    2.1194   -1.4459   -2.8062 H   0  0  0  0  0  0  0  0  0  0  0  0
    3.8265   -1.5856   -3.2636 H   0  0  0  0  0  0  0  0  0  0  0  0
    3.1768    0.8031   -3.1795 H   0  0  0  0  0  0  0  0  0  0  0  0
    4.3293    0.4443   -1.8566 H   0  0  0  0  0  0  0  0  0  0  0  0
    5.2051    0.2337    1.8854 H   0  0  0  0  0  0  0  0  0  0  0  0
    3.7844    1.1916    2.3993 H   0  0  0  0  0  0  0  0  0  0  0  0
    4.0998   -0.9201    3.7530 H   0  0  0  0  0  0  0  0  0  0  0  0
    2.5347   -0.8364    2.9355 H   0  0  0  0  0  0  0  0  0  0  0  0
    3.8198   -1.8642    2.2788 H   0  0  0  0  0  0  0  0  0  0  0  0
    0.1289   -0.2793    1.8790 H   0  0  0  0  0  0  0  0  0  0  0  0
    0.1324   -2.0466    2.2550 H   0  0  0  0  0  0  0  0  0  0  0  0
   -2.0729    0.9185    2.5246 H   0  0  0  0  0  0  0  0  0  0  0  0
   -2.4580    2.6042    2.0956 H   0  0  0  0  0  0  0  0  0  0  0  0
   -4.2347    0.1468    1.6230 H   0  0  0  0  0  0  0  0  0  0  0  0
   -4.5146    1.4312    2.8090 H   0  0  0  0  0  0  0  0  0  0  0  0
   -4.6222    1.7843    1.0752 H   0  0  0  0  0  0  0  0  0  0  0  0
   -2.9663   -1.0291   -2.6262 H   0  0  0  0  0  0  0  0  0  0  0  0
   -3.8521   -1.9782   -1.4029 H   0  0  0  0  0  0  0  0  0  0  0  0
   -5.3661   -1.3110   -3.2703 H   0  0  0  0  0  0  0  0  0  0  0  0
   -5.8639   -0.5372   -1.7559 H   0  0  0  0  0  0  0  0  0  0  0  0
   -4.9864    0.3936   -2.9764 H   0  0  0  0  0  0  0  0  0  0  0  0
  1  2  1  0  0  0  0
  2  3  1  0  0  0  0
  3  4  2  0  0  0  0
  4  5  2  0  0  0  0
  4  6  2  0  0  0  0
  6  7  1  0  0  0  0
  7  8  1  0  0  0  0
  4  9  1  0  0  0  0
  9 10  1  0  0  0  0
 10 11  1  0  0  0  0
 11 12  1  0  0  0  0
 12 13  2  0  0  0  0
 12 14  2  0  0  0  0
 14 15  1  0  0  0  0
 15 16  1  0  0  0  0
 12 17  2  0  0  0  0
 17 18  1  0  0  0  0
 18 19  1  0  0  0  0
  1 20  1  0  0  0  0
  1 21  1  0  0  0  0
  1 22  1  0  0  0  0
  2 23  1  0  0  0  0
  2 24  1  0  0  0  0
  7 25  1  0  0  0  0
  7 26  1  0  0  0  0
  8 27  1  0  0  0  0
  8 28  1  0  0  0  0
  8 29  1  0  0  0  0
 10 30  1  0  0  0  0
 10 31  1  0  0  0  0
 15 32  1  0  0  0  0
 15 33  1  0  0  0  0
 16 34  1  0  0  0  0
 16 35  1  0  0  0  0
 16 36  1  0  0  0  0
 18 37  1  0  0  0  0
 18 38  1  0  0  0  0
 19 39  1  0  0  0  0
 19 40  1  0  0  0  0
 19 41  1  0  0  0  0
M  END
