 xtb: 6.7.1 (edcfbbe)
          04092505213D

 41 40  0     0  0            999 V2000
    5.6047   -0.3353    0.5392 C   0  0  0  0  0  0  0  0  0  0  0  0
    4.4483   -1.2416    0.1695 C   0  0  0  0  0  0  0  0  0  0  0  0
    3.6719   -0.6673   -0.9107 O   0  0  0  0  0  0  0  0  0  0  0  0
    2.3423    0.1489   -0.6969 P   0  0  0  0  0  0  0  0  0  0  0  0
    1.6641    0.7459   -2.4297 S   0  0  0  0  0  0  0  0  0  0  0  0
    2.7885    1.2264    0.3826 O   0  0  0  0  0  0  0  0  0  0  0  0
    1.9054    2.1630    1.0224 C   0  0  0  0  0  0  0  0  0  0  0  0
    1.6355    3.3708    0.1484 C   0  0  0  0  0  0  0  0  0  0  0  0
    1.0654   -1.1447    0.4365 S   0  0  0  0  0  0  0  0  0  0  0  0
    0.0162   -1.7179   -0.9362 C   0  0  0  0  0  0  0  0  0  0  0  0
   -1.6412   -2.1685   -0.3828 S   0  0  0  0  0  0  0  0  0  0  0  0
   -2.2277   -0.3050    0.4216 P   0  0  0  0  0  0  0  0  0  0  0  0
   -1.4769    1.3376   -0.3585 S   0  0  0  0  0  0  0  0  0  0  0  0
   -1.8594   -0.5148    1.9478 O   0  0  0  0  0  0  0  0  0  0  0  0
   -1.7180    0.5783    2.8742 C   0  0  0  0  0  0  0  0  0  0  0  0
   -3.0651    1.1587    3.2498 C   0  0  0  0  0  0  0  0  0  0  0  0
   -3.8129   -0.4140    0.4697 O   0  0  0  0  0  0  0  0  0  0  0  0
   -4.6679   -0.7741   -0.6300 C   0  0  0  0  0  0  0  0  0  0  0  0
   -4.3920    0.0322   -1.8823 C   0  0  0  0  0  0  0  0  0  0  0  0
    6.2041   -0.8183    1.3045 H   0  0  0  0  0  0  0  0  0  0  0  0
    6.2215   -0.1466   -0.3350 H   0  0  0  0  0  0  0  0  0  0  0  0
    5.2348    0.6140    0.9167 H   0  0  0  0  0  0  0  0  0  0  0  0
    3.7895   -1.4181    1.0248 H   0  0  0  0  0  0  0  0  0  0  0  0
    4.8023   -2.1949   -0.2267 H   0  0  0  0  0  0  0  0  0  0  0  0
    0.9702    1.6559    1.2763 H   0  0  0  0  0  0  0  0  0  0  0  0
    2.4319    2.4418    1.9371 H   0  0  0  0  0  0  0  0  0  0  0  0
    1.0684    4.1028    0.7143 H   0  0  0  0  0  0  0  0  0  0  0  0
    2.5715    3.8122   -0.1826 H   0  0  0  0  0  0  0  0  0  0  0  0
    1.0537    3.0816   -0.7250 H   0  0  0  0  0  0  0  0  0  0  0  0
    0.4440   -2.6189   -1.3698 H   0  0  0  0  0  0  0  0  0  0  0  0
   -0.0388   -0.9129   -1.6758 H   0  0  0  0  0  0  0  0  0  0  0  0
   -1.2079    0.1351    3.7303 H   0  0  0  0  0  0  0  0  0  0  0  0
   -1.0841    1.3460    2.4173 H   0  0  0  0  0  0  0  0  0  0  0  0
   -3.7133    0.3792    3.6404 H   0  0  0  0  0  0  0  0  0  0  0  0
   -2.9302    1.9308    4.0007 H   0  0  0  0  0  0  0  0  0  0  0  0
   -3.5335    1.5946    2.3681 H   0  0  0  0  0  0  0  0  0  0  0  0
   -4.5402   -1.8431   -0.8221 H   0  0  0  0  0  0  0  0  0  0  0  0
   -5.6722   -0.5838   -0.2472 H   0  0  0  0  0  0  0  0  0  0  0  0
   -5.1173   -0.2276   -2.6467 H   0  0  0  0  0  0  0  0  0  0  0  0
   -4.4568    1.0975   -1.6724 H   0  0  0  0  0  0  0  0  0  0  0  0
   -3.3919   -0.1838   -2.2578 H   0  0  0  0  0  0  0  0  0  0  0  0
  1  2  1  0  0  0  0
  2  3  1  0  0  0  0
  3  4  2  0  0  0  0
  4  5  2  0  0  0  0
  4  6  2  0  0  0  0
  6  7  1  0  0  0  0
  7  8  1  0  0  0  0
  4  9  1  0  0  0  0
  9 10  1  0  0  0  0
 10 11  1  0  0  0  0
 11 12  1  0  0  0  0
 12 13  2  0  0  0  0
 12 14  2  0  0  0  0
 14 15  1  0  0  0  0
 15 16  1  0  0  0  0
 12 17  2  0  0  0  0
 17 18  1  0  0  0  0
 18 19  1  0  0  0  0
  1 20  1  0  0  0  0
  1 21  1  0  0  0  0
  1 22  1  0  0  0  0
  2 23  1  0  0  0  0
  2 24  1  0  0  0  0
  7 25  1  0  0  0  0
  7 26  1  0  0  0  0
  8 27  1  0  0  0  0
  8 28  1  0  0  0  0
  8 29  1  0  0  0  0
 10 30  1  0  0  0  0
 10 31  1  0  0  0  0
 15 32  1  0  0  0  0
 15 33  1  0  0  0  0
 16 34  1  0  0  0  0
 16 35  1  0  0  0  0
 16 36  1  0  0  0  0
 18 37  1  0  0  0  0
 18 38  1  0  0  0  0
 19 39  1  0  0  0  0
 19 40  1  0  0  0  0
 19 41  1  0  0  0  0
M  END
