 xtb: 6.7.1 (edcfbbe)
          04092505203D

 41 40  0     0  0            999 V2000
    4.0480    1.5491   -1.4131 C   0  0  0  0  0  0  0  0  0  0  0  0
    2.7836    0.9011   -1.9332 C   0  0  0  0  0  0  0  0  0  0  0  0
    2.4849   -0.3242   -1.2350 O   0  0  0  0  0  0  0  0  0  0  0  0
    2.1336   -0.3666    0.3044 P   0  0  0  0  0  0  0  0  0  0  0  0
    1.1143    1.1481    1.0259 S   0  0  0  0  0  0  0  0  0  0  0  0
    3.5578   -0.5928    0.9708 O   0  0  0  0  0  0  0  0  0  0  0  0
    3.7411   -0.6229    2.4019 C   0  0  0  0  0  0  0  0  0  0  0  0
    4.2533    0.7142    2.9017 C   0  0  0  0  0  0  0  0  0  0  0  0
    1.3152   -2.3078    0.4478 S   0  0  0  0  0  0  0  0  0  0  0  0
   -0.2813   -2.0789   -0.3798 C   0  0  0  0  0  0  0  0  0  0  0  0
   -1.5041   -1.2070    0.6486 S   0  0  0  0  0  0  0  0  0  0  0  0
   -2.1355    0.2240   -0.8019 P   0  0  0  0  0  0  0  0  0  0  0  0
   -0.7853    0.8286   -2.0822 S   0  0  0  0  0  0  0  0  0  0  0  0
   -2.9034    1.3381    0.0206 O   0  0  0  0  0  0  0  0  0  0  0  0
   -2.2764    2.3276    0.8602 C   0  0  0  0  0  0  0  0  0  0  0  0
   -2.2995    1.8960    2.3124 C   0  0  0  0  0  0  0  0  0  0  0  0
   -3.3044   -0.4898   -1.5820 O   0  0  0  0  0  0  0  0  0  0  0  0
   -4.4774   -1.0533   -0.9432 C   0  0  0  0  0  0  0  0  0  0  0  0
   -5.6243   -0.0638   -0.9459 C   0  0  0  0  0  0  0  0  0  0  0  0
    3.8986    1.8738   -0.3840 H   0  0  0  0  0  0  0  0  0  0  0  0
    4.8714    0.8402   -1.4434 H   0  0  0  0  0  0  0  0  0  0  0  0
    4.2869    2.4128   -2.0255 H   0  0  0  0  0  0  0  0  0  0  0  0
    2.8790    0.5879   -2.9737 H   0  0  0  0  0  0  0  0  0  0  0  0
    1.9248    1.5734   -1.8376 H   0  0  0  0  0  0  0  0  0  0  0  0
    2.7948   -0.8835    2.8839 H   0  0  0  0  0  0  0  0  0  0  0  0
    4.4676   -1.4191    2.5728 H   0  0  0  0  0  0  0  0  0  0  0  0
    3.5108    1.4895    2.7243 H   0  0  0  0  0  0  0  0  0  0  0  0
    4.4457    0.6470    3.9675 H   0  0  0  0  0  0  0  0  0  0  0  0
    5.1718    0.9792    2.3856 H   0  0  0  0  0  0  0  0  0  0  0  0
   -0.6494   -3.0810   -0.5828 H   0  0  0  0  0  0  0  0  0  0  0  0
   -0.1343   -1.5101   -1.3016 H   0  0  0  0  0  0  0  0  0  0  0  0
   -1.2518    2.5003    0.5188 H   0  0  0  0  0  0  0  0  0  0  0  0
   -2.8679    3.2316    0.7043 H   0  0  0  0  0  0  0  0  0  0  0  0
   -3.3149    1.6627    2.6193 H   0  0  0  0  0  0  0  0  0  0  0  0
   -1.6720    1.0198    2.4578 H   0  0  0  0  0  0  0  0  0  0  0  0
   -1.9115    2.7040    2.9238 H   0  0  0  0  0  0  0  0  0  0  0  0
   -4.7125   -1.9341   -1.5433 H   0  0  0  0  0  0  0  0  0  0  0  0
   -4.2141   -1.3558    0.0743 H   0  0  0  0  0  0  0  0  0  0  0  0
   -5.8360    0.2577   -1.9621 H   0  0  0  0  0  0  0  0  0  0  0  0
   -6.5053   -0.5424   -0.5300 H   0  0  0  0  0  0  0  0  0  0  0  0
   -5.3734    0.8085   -0.3489 H   0  0  0  0  0  0  0  0  0  0  0  0
  1  2  1  0  0  0  0
  2  3  1  0  0  0  0
  3  4  2  0  0  0  0
  4  5  2  0  0  0  0
  4  6  2  0  0  0  0
  6  7  1  0  0  0  0
  7  8  1  0  0  0  0
  4  9  1  0  0  0  0
  9 10  1  0  0  0  0
 10 11  1  0  0  0  0
 11 12  1  0  0  0  0
 12 13  2  0  0  0  0
 12 14  2  0  0  0  0
 14 15  1  0  0  0  0
 15 16  1  0  0  0  0
 12 17  2  0  0  0  0
 17 18  1  0  0  0  0
 18 19  1  0  0  0  0
  1 20  1  0  0  0  0
  1 21  1  0  0  0  0
  1 22  1  0  0  0  0
  2 23  1  0  0  0  0
  2 24  1  0  0  0  0
  7 25  1  0  0  0  0
  7 26  1  0  0  0  0
  8 27  1  0  0  0  0
  8 28  1  0  0  0  0
  8 29  1  0  0  0  0
 10 30  1  0  0  0  0
 10 31  1  0  0  0  0
 15 32  1  0  0  0  0
 15 33  1  0  0  0  0
 16 34  1  0  0  0  0
 16 35  1  0  0  0  0
 16 36  1  0  0  0  0
 18 37  1  0  0  0  0
 18 38  1  0  0  0  0
 19 39  1  0  0  0  0
 19 40  1  0  0  0  0
 19 41  1  0  0  0  0
M  END
