 xtb: 6.7.1 (edcfbbe)
          04092505203D

 41 40  0     0  0            999 V2000
    2.9901   -2.3959    2.3078 C   0  0  0  0  0  0  0  0  0  0  0  0
    1.6835   -2.2302    1.5615 C   0  0  0  0  0  0  0  0  0  0  0  0
    1.4458   -0.8471    1.2358 O   0  0  0  0  0  0  0  0  0  0  0  0
    2.2692   -0.0894    0.1103 P   0  0  0  0  0  0  0  0  0  0  0  0
    2.9384   -1.2621   -1.3189 S   0  0  0  0  0  0  0  0  0  0  0  0
    3.3370    0.6793    0.9982 O   0  0  0  0  0  0  0  0  0  0  0  0
    4.0451    1.8723    0.6163 C   0  0  0  0  0  0  0  0  0  0  0  0
    4.7215    1.7506   -0.7336 C   0  0  0  0  0  0  0  0  0  0  0  0
    0.9116    1.4278   -0.4671 S   0  0  0  0  0  0  0  0  0  0  0  0
    0.0287    0.4343   -1.6984 C   0  0  0  0  0  0  0  0  0  0  0  0
   -0.9540   -0.8936   -0.9690 S   0  0  0  0  0  0  0  0  0  0  0  0
   -2.6625    0.2503   -0.3628 P   0  0  0  0  0  0  0  0  0  0  0  0
   -2.8186    1.9962   -1.2352 S   0  0  0  0  0  0  0  0  0  0  0  0
   -2.6689    0.1897    1.2299 O   0  0  0  0  0  0  0  0  0  0  0  0
   -1.6370    0.6759    2.1033 C   0  0  0  0  0  0  0  0  0  0  0  0
   -1.5870    2.1895    2.1557 C   0  0  0  0  0  0  0  0  0  0  0  0
   -3.9293   -0.6201   -0.6977 O   0  0  0  0  0  0  0  0  0  0  0  0
   -4.3729   -1.7992    0.0175 C   0  0  0  0  0  0  0  0  0  0  0  0
   -3.3803   -2.9387   -0.0703 C   0  0  0  0  0  0  0  0  0  0  0  0
    2.9969   -1.7719    3.1973 H   0  0  0  0  0  0  0  0  0  0  0  0
    3.1182   -3.4359    2.5905 H   0  0  0  0  0  0  0  0  0  0  0  0
    3.8169   -2.0969    1.6641 H   0  0  0  0  0  0  0  0  0  0  0  0
    0.8255   -2.5126    2.1726 H   0  0  0  0  0  0  0  0  0  0  0  0
    1.6863   -2.8125    0.6342 H   0  0  0  0  0  0  0  0  0  0  0  0
    3.3350    2.7040    0.6193 H   0  0  0  0  0  0  0  0  0  0  0  0
    4.7746    2.0051    1.4172 H   0  0  0  0  0  0  0  0  0  0  0  0
    5.3736    0.8805   -0.7559 H   0  0  0  0  0  0  0  0  0  0  0  0
    3.9753    1.6423   -1.5199 H   0  0  0  0  0  0  0  0  0  0  0  0
    5.3077    2.6436   -0.9254 H   0  0  0  0  0  0  0  0  0  0  0  0
    0.7513   -0.0407   -2.3619 H   0  0  0  0  0  0  0  0  0  0  0  0
   -0.6284    1.1184   -2.2365 H   0  0  0  0  0  0  0  0  0  0  0  0
   -1.9062    0.2572    3.0752 H   0  0  0  0  0  0  0  0  0  0  0  0
   -0.6741    0.2645    1.7850 H   0  0  0  0  0  0  0  0  0  0  0  0
   -1.2927    2.5970    1.1904 H   0  0  0  0  0  0  0  0  0  0  0  0
   -2.5637    2.5888    2.4166 H   0  0  0  0  0  0  0  0  0  0  0  0
   -0.8605    2.4960    2.9013 H   0  0  0  0  0  0  0  0  0  0  0  0
   -4.5599   -1.5186    1.0555 H   0  0  0  0  0  0  0  0  0  0  0  0
   -5.3135   -2.0477   -0.4763 H   0  0  0  0  0  0  0  0  0  0  0  0
   -2.4540   -2.6766    0.4384 H   0  0  0  0  0  0  0  0  0  0  0  0
   -3.8060   -3.8181    0.4030 H   0  0  0  0  0  0  0  0  0  0  0  0
   -3.1527   -3.1655   -1.1088 H   0  0  0  0  0  0  0  0  0  0  0  0
  1  2  1  0  0  0  0
  2  3  1  0  0  0  0
  3  4  2  0  0  0  0
  4  5  2  0  0  0  0
  4  6  2  0  0  0  0
  6  7  1  0  0  0  0
  7  8  1  0  0  0  0
  4  9  1  0  0  0  0
  9 10  1  0  0  0  0
 10 11  1  0  0  0  0
 11 12  1  0  0  0  0
 12 13  2  0  0  0  0
 12 14  2  0  0  0  0
 14 15  1  0  0  0  0
 15 16  1  0  0  0  0
 12 17  2  0  0  0  0
 17 18  1  0  0  0  0
 18 19  1  0  0  0  0
  1 20  1  0  0  0  0
  1 21  1  0  0  0  0
  1 22  1  0  0  0  0
  2 23  1  0  0  0  0
  2 24  1  0  0  0  0
  7 25  1  0  0  0  0
  7 26  1  0  0  0  0
  8 27  1  0  0  0  0
  8 28  1  0  0  0  0
  8 29  1  0  0  0  0
 10 30  1  0  0  0  0
 10 31  1  0  0  0  0
 15 32  1  0  0  0  0
 15 33  1  0  0  0  0
 16 34  1  0  0  0  0
 16 35  1  0  0  0  0
 16 36  1  0  0  0  0
 18 37  1  0  0  0  0
 18 38  1  0  0  0  0
 19 39  1  0  0  0  0
 19 40  1  0  0  0  0
 19 41  1  0  0  0  0
M  END
