 xtb: 6.7.1 (edcfbbe)
          04092505213D

 41 40  0     0  0            999 V2000
    5.5604   -0.6247   -1.3305 C   0  0  0  0  0  0  0  0  0  0  0  0
    4.4334    0.3039   -0.9256 C   0  0  0  0  0  0  0  0  0  0  0  0
    3.2181   -0.4701   -0.8524 O   0  0  0  0  0  0  0  0  0  0  0  0
    2.0233   -0.0633    0.1076 P   0  0  0  0  0  0  0  0  0  0  0  0
    2.5705    0.5237    1.8999 S   0  0  0  0  0  0  0  0  0  0  0  0
    1.0661   -1.3185    0.0041 O   0  0  0  0  0  0  0  0  0  0  0  0
    1.5208   -2.6870   -0.0944 C   0  0  0  0  0  0  0  0  0  0  0  0
    2.1798   -3.1454    1.1894 C   0  0  0  0  0  0  0  0  0  0  0  0
    0.9687    1.3992   -1.0045 S   0  0  0  0  0  0  0  0  0  0  0  0
   -0.0410    2.0274    0.3696 C   0  0  0  0  0  0  0  0  0  0  0  0
   -0.9676    0.7354    1.2343 S   0  0  0  0  0  0  0  0  0  0  0  0
   -2.2535    0.0927   -0.3594 P   0  0  0  0  0  0  0  0  0  0  0  0
   -1.5560   -0.9292   -1.8717 S   0  0  0  0  0  0  0  0  0  0  0  0
   -2.9561    1.4251   -0.8248 O   0  0  0  0  0  0  0  0  0  0  0  0
   -3.7893    2.2249    0.0582 C   0  0  0  0  0  0  0  0  0  0  0  0
   -3.8753    3.6217   -0.5210 C   0  0  0  0  0  0  0  0  0  0  0  0
   -3.4077   -0.6467    0.4510 O   0  0  0  0  0  0  0  0  0  0  0  0
   -3.3475   -2.0523    0.7483 C   0  0  0  0  0  0  0  0  0  0  0  0
   -2.2329   -2.3764    1.7219 C   0  0  0  0  0  0  0  0  0  0  0  0
    5.7002   -1.3973   -0.5794 H   0  0  0  0  0  0  0  0  0  0  0  0
    5.3308   -1.0945   -2.2827 H   0  0  0  0  0  0  0  0  0  0  0  0
    6.4754   -0.0494   -1.4252 H   0  0  0  0  0  0  0  0  0  0  0  0
    4.2816    1.0948   -1.6640 H   0  0  0  0  0  0  0  0  0  0  0  0
    4.6187    0.7557    0.0551 H   0  0  0  0  0  0  0  0  0  0  0  0
    0.6060   -3.2426   -0.3097 H   0  0  0  0  0  0  0  0  0  0  0  0
    2.2029   -2.7647   -0.9429 H   0  0  0  0  0  0  0  0  0  0  0  0
    1.5001   -3.0232    2.0296 H   0  0  0  0  0  0  0  0  0  0  0  0
    2.4586   -4.1904    1.0988 H   0  0  0  0  0  0  0  0  0  0  0  0
    3.0726   -2.5510    1.3808 H   0  0  0  0  0  0  0  0  0  0  0  0
   -0.7169    2.7626   -0.0607 H   0  0  0  0  0  0  0  0  0  0  0  0
    0.6089    2.4751    1.1213 H   0  0  0  0  0  0  0  0  0  0  0  0
   -4.7699    1.7485    0.1012 H   0  0  0  0  0  0  0  0  0  0  0  0
   -3.3466    2.2240    1.0583 H   0  0  0  0  0  0  0  0  0  0  0  0
   -4.5375    4.2206    0.0958 H   0  0  0  0  0  0  0  0  0  0  0  0
   -2.8946    4.0892   -0.5476 H   0  0  0  0  0  0  0  0  0  0  0  0
   -4.2666    3.5793   -1.5334 H   0  0  0  0  0  0  0  0  0  0  0  0
   -4.3293   -2.2737    1.1687 H   0  0  0  0  0  0  0  0  0  0  0  0
   -3.2102   -2.5973   -0.1912 H   0  0  0  0  0  0  0  0  0  0  0  0
   -1.2688   -2.1558    1.2638 H   0  0  0  0  0  0  0  0  0  0  0  0
   -2.3310   -1.7791    2.6252 H   0  0  0  0  0  0  0  0  0  0  0  0
   -2.2701   -3.4303    1.9780 H   0  0  0  0  0  0  0  0  0  0  0  0
  1  2  1  0  0  0  0
  2  3  1  0  0  0  0
  3  4  2  0  0  0  0
  4  5  2  0  0  0  0
  4  6  2  0  0  0  0
  6  7  1  0  0  0  0
  7  8  1  0  0  0  0
  4  9  1  0  0  0  0
  9 10  1  0  0  0  0
 10 11  1  0  0  0  0
 11 12  1  0  0  0  0
 12 13  2  0  0  0  0
 12 14  2  0  0  0  0
 14 15  1  0  0  0  0
 15 16  1  0  0  0  0
 12 17  2  0  0  0  0
 17 18  1  0  0  0  0
 18 19  1  0  0  0  0
  1 20  1  0  0  0  0
  1 21  1  0  0  0  0
  1 22  1  0  0  0  0
  2 23  1  0  0  0  0
  2 24  1  0  0  0  0
  7 25  1  0  0  0  0
  7 26  1  0  0  0  0
  8 27  1  0  0  0  0
  8 28  1  0  0  0  0
  8 29  1  0  0  0  0
 10 30  1  0  0  0  0
 10 31  1  0  0  0  0
 15 32  1  0  0  0  0
 15 33  1  0  0  0  0
 16 34  1  0  0  0  0
 16 35  1  0  0  0  0
 16 36  1  0  0  0  0
 18 37  1  0  0  0  0
 18 38  1  0  0  0  0
 19 39  1  0  0  0  0
 19 40  1  0  0  0  0
 19 41  1  0  0  0  0
M  END
