 xtb: 6.7.1 (edcfbbe)
          04092507313D

 38 37  0     0  0            999 V2000
    4.3156   -3.1827   -2.3690 C   0  0  0  0  0  0  0  0  0  0  0  0
    3.0680   -3.2105   -1.5082 C   0  0  0  0  0  0  0  0  0  0  0  0
    2.8350   -1.8764   -1.0154 O   0  0  0  0  0  0  0  0  0  0  0  0
    1.9575   -1.7172   -0.0504 C   0  0  0  0  0  0  0  0  0  0  0  0
    1.3412   -2.6199    0.4729 O   0  0  0  0  0  0  0  0  0  0  0  0
    1.7776   -0.2521    0.3022 C   0  0  0  0  0  0  0  0  0  0  0  0
    0.9632    0.4204   -0.8091 C   0  0  0  0  0  0  0  0  0  0  0  0
    1.5615    0.4908   -1.7206 H   0  0  0  0  0  0  0  0  0  0  0  0
    0.4985    1.8018   -0.3862 C   0  0  0  0  0  0  0  0  0  0  0  0
   -0.6796    2.0939   -0.3114 O   0  0  0  0  0  0  0  0  0  0  0  0
    1.4942    2.5949   -0.1221 O   0  0  0  0  0  0  0  0  0  0  0  0
    1.2061    3.9114    0.4033 C   0  0  0  0  0  0  0  0  0  0  0  0
    1.0671    3.8561    1.9156 C   0  0  0  0  0  0  0  0  0  0  0  0
   -0.5142   -0.5454   -1.2839 S   0  0  0  0  0  0  0  0  0  0  0  0
   -1.8608   -0.0795    0.2917 P   0  0  0  0  0  0  0  0  0  0  0  0
   -1.2567    0.4572    2.0873 S   0  0  0  0  0  0  0  0  0  0  0  0
   -3.0884    0.6981   -0.3402 O   0  0  0  0  0  0  0  0  0  0  0  0
   -3.4672    2.0420   -0.0336 C   0  0  0  0  0  0  0  0  0  0  0  0
   -2.6367   -1.4838    0.3425 O   0  0  0  0  0  0  0  0  0  0  0  0
   -2.0406   -2.6294    0.9548 C   0  0  0  0  0  0  0  0  0  0  0  0
    4.1804   -2.4934   -3.1967 H   0  0  0  0  0  0  0  0  0  0  0  0
    5.1695   -2.8619   -1.7798 H   0  0  0  0  0  0  0  0  0  0  0  0
    4.5038   -4.1774   -2.7586 H   0  0  0  0  0  0  0  0  0  0  0  0
    3.1745   -3.8827   -0.6512 H   0  0  0  0  0  0  0  0  0  0  0  0
    2.1870   -3.5165   -2.0807 H   0  0  0  0  0  0  0  0  0  0  0  0
    2.7481    0.2377    0.3728 H   0  0  0  0  0  0  0  0  0  0  0  0
    1.2515   -0.1881    1.2566 H   0  0  0  0  0  0  0  0  0  0  0  0
    2.0611    4.5152    0.1005 H   0  0  0  0  0  0  0  0  0  0  0  0
    0.2884    4.2809   -0.0605 H   0  0  0  0  0  0  0  0  0  0  0  0
    1.9869    3.4956    2.3668 H   0  0  0  0  0  0  0  0  0  0  0  0
    0.8482    4.8492    2.2931 H   0  0  0  0  0  0  0  0  0  0  0  0
    0.2567    3.1855    2.1974 H   0  0  0  0  0  0  0  0  0  0  0  0
   -4.5548    2.0505   -0.0182 H   0  0  0  0  0  0  0  0  0  0  0  0
   -3.0827    2.7065   -0.8049 H   0  0  0  0  0  0  0  0  0  0  0  0
   -3.0696    2.3376    0.9386 H   0  0  0  0  0  0  0  0  0  0  0  0
   -2.7327   -3.4483    0.7796 H   0  0  0  0  0  0  0  0  0  0  0  0
   -1.9161   -2.4544    2.0248 H   0  0  0  0  0  0  0  0  0  0  0  0
   -1.0661   -2.8519    0.5153 H   0  0  0  0  0  0  0  0  0  0  0  0
  1  2  1  0  0  0  0
  2  3  1  0  0  0  0
  3  4  4  0  0  0  0
  4  5  2  0  0  0  0
  4  6  1  0  0  0  0
  6  7  1  0  0  0  0
  7  8  1  0  0  0  0
  7  9  1  0  0  0  0
  9 10  2  0  0  0  0
  9 11  4  0  0  0  0
 11 12  1  0  0  0  0
 12 13  1  0  0  0  0
  7 14  1  0  0  0  0
 14 15  1  0  0  0  0
 15 16  2  0  0  0  0
 15 17  2  0  0  0  0
 17 18  1  0  0  0  0
 15 19  1  0  0  0  0
 19 20  1  0  0  0  0
  1 21  1  0  0  0  0
  1 22  1  0  0  0  0
  1 23  1  0  0  0  0
  2 24  1  0  0  0  0
  2 25  1  0  0  0  0
  6 26  1  0  0  0  0
  6 27  1  0  0  0  0
 12 28  1  0  0  0  0
 12 29  1  0  0  0  0
 13 30  1  0  0  0  0
 13 31  1  0  0  0  0
 13 32  1  0  0  0  0
 18 33  1  0  0  0  0
 18 34  1  0  0  0  0
 18 35  1  0  0  0  0
 20 36  1  0  0  0  0
 20 37  1  0  0  0  0
 20 38  1  0  0  0  0
M  END
