 xtb: 6.7.1 (edcfbbe)
          04092505203D

 41 40  0     0  0            999 V2000
    2.3029   -3.3716   -0.5553 C   0  0  0  0  0  0  0  0  0  0  0  0
    1.3172   -2.5856    0.2850 C   0  0  0  0  0  0  0  0  0  0  0  0
    1.8738   -1.3318    0.7079 O   0  0  0  0  0  0  0  0  0  0  0  0
    2.1367   -0.1117   -0.2917 P   0  0  0  0  0  0  0  0  0  0  0  0
    0.9755   -0.0690   -1.8669 S   0  0  0  0  0  0  0  0  0  0  0  0
    3.6546   -0.1634   -0.7397 O   0  0  0  0  0  0  0  0  0  0  0  0
    4.7910    0.1922    0.0835 C   0  0  0  0  0  0  0  0  0  0  0  0
    4.9508   -0.7200    1.2813 C   0  0  0  0  0  0  0  0  0  0  0  0
    2.0512    1.5025    1.0572 S   0  0  0  0  0  0  0  0  0  0  0  0
    0.2731    1.8118    0.9965 C   0  0  0  0  0  0  0  0  0  0  0  0
   -0.7275    0.3980    1.5796 S   0  0  0  0  0  0  0  0  0  0  0  0
   -2.1222    0.2545   -0.0000 P   0  0  0  0  0  0  0  0  0  0  0  0
   -2.2029    1.7341   -1.2895 S   0  0  0  0  0  0  0  0  0  0  0  0
   -3.4993   -0.0411    0.7411 O   0  0  0  0  0  0  0  0  0  0  0  0
   -4.4003    1.0015    1.1489 C   0  0  0  0  0  0  0  0  0  0  0  0
   -3.8129    1.8786    2.2359 C   0  0  0  0  0  0  0  0  0  0  0  0
   -1.7757   -1.1936   -0.5431 O   0  0  0  0  0  0  0  0  0  0  0  0
   -2.1849   -1.6433   -1.8510 C   0  0  0  0  0  0  0  0  0  0  0  0
   -3.6905   -1.6958   -1.9952 C   0  0  0  0  0  0  0  0  0  0  0  0
    2.5535   -2.8022   -1.4508 H   0  0  0  0  0  0  0  0  0  0  0  0
    3.2125   -3.5609    0.0082 H   0  0  0  0  0  0  0  0  0  0  0  0
    1.8578   -4.3171   -0.8485 H   0  0  0  0  0  0  0  0  0  0  0  0
    1.0741   -3.0954    1.2184 H   0  0  0  0  0  0  0  0  0  0  0  0
    0.3979   -2.3897   -0.2758 H   0  0  0  0  0  0  0  0  0  0  0  0
    5.6333    0.1071   -0.6050 H   0  0  0  0  0  0  0  0  0  0  0  0
    4.6733    1.2321    0.3991 H   0  0  0  0  0  0  0  0  0  0  0  0
    5.0456   -1.7538    0.9597 H   0  0  0  0  0  0  0  0  0  0  0  0
    5.8447   -0.4327    1.8260 H   0  0  0  0  0  0  0  0  0  0  0  0
    4.0900   -0.6302    1.9406 H   0  0  0  0  0  0  0  0  0  0  0  0
   -0.0301    2.0528   -0.0264 H   0  0  0  0  0  0  0  0  0  0  0  0
    0.1048    2.6539    1.6634 H   0  0  0  0  0  0  0  0  0  0  0  0
   -4.6523    1.6021    0.2689 H   0  0  0  0  0  0  0  0  0  0  0  0
   -5.2821    0.4626    1.4977 H   0  0  0  0  0  0  0  0  0  0  0  0
   -2.9805    2.4559    1.8350 H   0  0  0  0  0  0  0  0  0  0  0  0
   -4.5745    2.5635    2.5945 H   0  0  0  0  0  0  0  0  0  0  0  0
   -3.4546    1.2696    3.0621 H   0  0  0  0  0  0  0  0  0  0  0  0
   -1.7370   -0.9768   -2.5958 H   0  0  0  0  0  0  0  0  0  0  0  0
   -1.7358   -2.6341   -1.9375 H   0  0  0  0  0  0  0  0  0  0  0  0
   -4.1226   -2.2897   -1.1938 H   0  0  0  0  0  0  0  0  0  0  0  0
   -4.1035   -0.6886   -1.9522 H   0  0  0  0  0  0  0  0  0  0  0  0
   -3.9420   -2.1385   -2.9540 H   0  0  0  0  0  0  0  0  0  0  0  0
  1  2  1  0  0  0  0
  2  3  1  0  0  0  0
  3  4  1  0  0  0  0
  4  5  2  0  0  0  0
  4  6  2  0  0  0  0
  6  7  1  0  0  0  0
  7  8  1  0  0  0  0
  4  9  1  0  0  0  0
  9 10  1  0  0  0  0
 10 11  1  0  0  0  0
 11 12  1  0  0  0  0
 12 13  2  0  0  0  0
 12 14  2  0  0  0  0
 14 15  1  0  0  0  0
 15 16  1  0  0  0  0
 12 17  2  0  0  0  0
 17 18  1  0  0  0  0
 18 19  1  0  0  0  0
  1 20  1  0  0  0  0
  1 21  1  0  0  0  0
  1 22  1  0  0  0  0
  2 23  1  0  0  0  0
  2 24  1  0  0  0  0
  7 25  1  0  0  0  0
  7 26  1  0  0  0  0
  8 27  1  0  0  0  0
  8 28  1  0  0  0  0
  8 29  1  0  0  0  0
 10 30  1  0  0  0  0
 10 31  1  0  0  0  0
 15 32  1  0  0  0  0
 15 33  1  0  0  0  0
 16 34  1  0  0  0  0
 16 35  1  0  0  0  0
 16 36  1  0  0  0  0
 18 37  1  0  0  0  0
 18 38  1  0  0  0  0
 19 39  1  0  0  0  0
 19 40  1  0  0  0  0
 19 41  1  0  0  0  0
M  END
