 xtb: 6.7.1 (edcfbbe)
          04092505203D

 41 40  0     0  0            999 V2000
    4.5222   -1.5298    1.0922 C   0  0  0  0  0  0  0  0  0  0  0  0
    4.0357   -0.0945    1.0833 C   0  0  0  0  0  0  0  0  0  0  0  0
    3.5548    0.2827   -0.2311 O   0  0  0  0  0  0  0  0  0  0  0  0
    2.0185    0.3269   -0.6249 P   0  0  0  0  0  0  0  0  0  0  0  0
    1.7934    1.0333   -2.4319 S   0  0  0  0  0  0  0  0  0  0  0  0
    1.2701    1.1197    0.5512 O   0  0  0  0  0  0  0  0  0  0  0  0
    1.1233    2.5483    0.5178 C   0  0  0  0  0  0  0  0  0  0  0  0
    2.4333    3.2563    0.7938 C   0  0  0  0  0  0  0  0  0  0  0  0
    1.3432   -1.6242   -0.2472 S   0  0  0  0  0  0  0  0  0  0  0  0
   -0.1641   -1.6660   -1.2720 C   0  0  0  0  0  0  0  0  0  0  0  0
   -1.6592   -1.9735   -0.3138 S   0  0  0  0  0  0  0  0  0  0  0  0
   -2.0975    0.0306    0.2558 P   0  0  0  0  0  0  0  0  0  0  0  0
   -1.6898    1.3916   -1.0941 S   0  0  0  0  0  0  0  0  0  0  0  0
   -1.3396    0.3655    1.5961 O   0  0  0  0  0  0  0  0  0  0  0  0
   -1.4599   -0.4083    2.8189 C   0  0  0  0  0  0  0  0  0  0  0  0
   -0.2299   -1.2685    3.0291 C   0  0  0  0  0  0  0  0  0  0  0  0
   -3.5950   -0.0805    0.7759 O   0  0  0  0  0  0  0  0  0  0  0  0
   -4.6791   -0.7188    0.0755 C   0  0  0  0  0  0  0  0  0  0  0  0
   -4.8778   -0.1722   -1.3223 C   0  0  0  0  0  0  0  0  0  0  0  0
    3.6966   -2.2169    0.9215 H   0  0  0  0  0  0  0  0  0  0  0  0
    5.2644   -1.6728    0.3119 H   0  0  0  0  0  0  0  0  0  0  0  0
    4.9706   -1.7437    2.0573 H   0  0  0  0  0  0  0  0  0  0  0  0
    4.8552    0.5993    1.2800 H   0  0  0  0  0  0  0  0  0  0  0  0
    3.2370    0.0594    1.8131 H   0  0  0  0  0  0  0  0  0  0  0  0
    0.7245    2.8343   -0.4615 H   0  0  0  0  0  0  0  0  0  0  0  0
    0.3717    2.7547    1.2821 H   0  0  0  0  0  0  0  0  0  0  0  0
    3.1503    3.0226    0.0070 H   0  0  0  0  0  0  0  0  0  0  0  0
    2.2617    4.3281    0.8051 H   0  0  0  0  0  0  0  0  0  0  0  0
    2.8393    2.9459    1.7532 H   0  0  0  0  0  0  0  0  0  0  0  0
   -0.0657   -2.4977   -1.9648 H   0  0  0  0  0  0  0  0  0  0  0  0
   -0.2555   -0.7153   -1.8064 H   0  0  0  0  0  0  0  0  0  0  0  0
   -1.5579    0.3423    3.6050 H   0  0  0  0  0  0  0  0  0  0  0  0
   -2.3682   -1.0118    2.7738 H   0  0  0  0  0  0  0  0  0  0  0  0
    0.6653   -0.6555    2.9641 H   0  0  0  0  0  0  0  0  0  0  0  0
   -0.2808   -1.7238    4.0129 H   0  0  0  0  0  0  0  0  0  0  0  0
   -0.1687   -2.0527    2.2782 H   0  0  0  0  0  0  0  0  0  0  0  0
   -4.4809   -1.7936    0.0460 H   0  0  0  0  0  0  0  0  0  0  0  0
   -5.5449   -0.5165    0.7087 H   0  0  0  0  0  0  0  0  0  0  0  0
   -4.0093   -0.3933   -1.9412 H   0  0  0  0  0  0  0  0  0  0  0  0
   -5.7551   -0.6299   -1.7677 H   0  0  0  0  0  0  0  0  0  0  0  0
   -5.0092    0.9070   -1.2932 H   0  0  0  0  0  0  0  0  0  0  0  0
  1  2  1  0  0  0  0
  2  3  1  0  0  0  0
  3  4  2  0  0  0  0
  4  5  2  0  0  0  0
  4  6  1  0  0  0  0
  6  7  1  0  0  0  0
  7  8  1  0  0  0  0
  4  9  1  0  0  0  0
  9 10  1  0  0  0  0
 10 11  1  0  0  0  0
 11 12  1  0  0  0  0
 12 13  2  0  0  0  0
 12 14  2  0  0  0  0
 14 15  1  0  0  0  0
 15 16  1  0  0  0  0
 12 17  2  0  0  0  0
 17 18  1  0  0  0  0
 18 19  1  0  0  0  0
  1 20  1  0  0  0  0
  1 21  1  0  0  0  0
  1 22  1  0  0  0  0
  2 23  1  0  0  0  0
  2 24  1  0  0  0  0
  7 25  1  0  0  0  0
  7 26  1  0  0  0  0
  8 27  1  0  0  0  0
  8 28  1  0  0  0  0
  8 29  1  0  0  0  0
 10 30  1  0  0  0  0
 10 31  1  0  0  0  0
 15 32  1  0  0  0  0
 15 33  1  0  0  0  0
 16 34  1  0  0  0  0
 16 35  1  0  0  0  0
 16 36  1  0  0  0  0
 18 37  1  0  0  0  0
 18 38  1  0  0  0  0
 19 39  1  0  0  0  0
 19 40  1  0  0  0  0
 19 41  1  0  0  0  0
M  END
