 xtb: 6.7.1 (edcfbbe)
          04092505203D

 41 40  0     0  0            999 V2000
    3.3252   -1.5194   -2.8391 C   0  0  0  0  0  0  0  0  0  0  0  0
    4.1043   -1.2280   -1.5744 C   0  0  0  0  0  0  0  0  0  0  0  0
    3.5571   -0.1305   -0.8176 O   0  0  0  0  0  0  0  0  0  0  0  0
    2.0371    0.0098   -0.3790 P   0  0  0  0  0  0  0  0  0  0  0  0
    0.7886    0.6701   -1.7317 S   0  0  0  0  0  0  0  0  0  0  0  0
    2.1092    1.0427    0.8061 O   0  0  0  0  0  0  0  0  0  0  0  0
    2.9756    0.9118    1.9596 C   0  0  0  0  0  0  0  0  0  0  0  0
    4.2247    1.7502    1.7836 C   0  0  0  0  0  0  0  0  0  0  0  0
    1.6659   -1.8976    0.4978 S   0  0  0  0  0  0  0  0  0  0  0  0
    0.0423   -1.5950    1.2343 C   0  0  0  0  0  0  0  0  0  0  0  0
   -1.3263   -1.5437    0.0352 S   0  0  0  0  0  0  0  0  0  0  0  0
   -2.0385    0.4423    0.3567 P   0  0  0  0  0  0  0  0  0  0  0  0
   -1.0226    1.5204    1.6326 S   0  0  0  0  0  0  0  0  0  0  0  0
   -3.5536    0.1873    0.7930 O   0  0  0  0  0  0  0  0  0  0  0  0
   -3.8807   -0.4000    2.0674 C   0  0  0  0  0  0  0  0  0  0  0  0
   -5.3678   -0.2197    2.2951 C   0  0  0  0  0  0  0  0  0  0  0  0
   -2.2522    1.1265   -1.0356 O   0  0  0  0  0  0  0  0  0  0  0  0
   -2.9527    0.4817   -2.1336 C   0  0  0  0  0  0  0  0  0  0  0  0
   -2.5353    1.1726   -3.4134 C   0  0  0  0  0  0  0  0  0  0  0  0
    3.2502   -0.6252   -3.4536 H   0  0  0  0  0  0  0  0  0  0  0  0
    3.8267   -2.3019   -3.3992 H   0  0  0  0  0  0  0  0  0  0  0  0
    2.3170   -1.8497   -2.5914 H   0  0  0  0  0  0  0  0  0  0  0  0
    5.1215   -0.9022   -1.7991 H   0  0  0  0  0  0  0  0  0  0  0  0
    4.1290   -2.1069   -0.9244 H   0  0  0  0  0  0  0  0  0  0  0  0
    2.3681    1.2689    2.7943 H   0  0  0  0  0  0  0  0  0  0  0  0
    3.2238   -0.1438    2.1024 H   0  0  0  0  0  0  0  0  0  0  0  0
    3.9529    2.7883    1.6122 H   0  0  0  0  0  0  0  0  0  0  0  0
    4.8282    1.6805    2.6831 H   0  0  0  0  0  0  0  0  0  0  0  0
    4.8003    1.3945    0.9330 H   0  0  0  0  0  0  0  0  0  0  0  0
    0.0529   -0.6471    1.7810 H   0  0  0  0  0  0  0  0  0  0  0  0
   -0.1328   -2.4376    1.8981 H   0  0  0  0  0  0  0  0  0  0  0  0
   -3.6074   -1.4588    2.0347 H   0  0  0  0  0  0  0  0  0  0  0  0
   -3.2912    0.1018    2.8420 H   0  0  0  0  0  0  0  0  0  0  0  0
   -5.6371   -0.6585    3.2501 H   0  0  0  0  0  0  0  0  0  0  0  0
   -5.6174    0.8376    2.3022 H   0  0  0  0  0  0  0  0  0  0  0  0
   -5.9269   -0.7082    1.5026 H   0  0  0  0  0  0  0  0  0  0  0  0
   -2.6775   -0.5770   -2.1476 H   0  0  0  0  0  0  0  0  0  0  0  0
   -4.0232    0.5802   -1.9438 H   0  0  0  0  0  0  0  0  0  0  0  0
   -2.8033    2.2244   -3.3752 H   0  0  0  0  0  0  0  0  0  0  0  0
   -1.4574    1.0931   -3.5363 H   0  0  0  0  0  0  0  0  0  0  0  0
   -3.0323    0.6992   -4.2536 H   0  0  0  0  0  0  0  0  0  0  0  0
  1  2  1  0  0  0  0
  2  3  1  0  0  0  0
  3  4  2  0  0  0  0
  4  5  2  0  0  0  0
  4  6  2  0  0  0  0
  6  7  1  0  0  0  0
  7  8  1  0  0  0  0
  4  9  1  0  0  0  0
  9 10  1  0  0  0  0
 10 11  1  0  0  0  0
 11 12  1  0  0  0  0
 12 13  2  0  0  0  0
 12 14  2  0  0  0  0
 14 15  1  0  0  0  0
 15 16  1  0  0  0  0
 12 17  2  0  0  0  0
 17 18  1  0  0  0  0
 18 19  1  0  0  0  0
  1 20  1  0  0  0  0
  1 21  1  0  0  0  0
  1 22  1  0  0  0  0
  2 23  1  0  0  0  0
  2 24  1  0  0  0  0
  7 25  1  0  0  0  0
  7 26  1  0  0  0  0
  8 27  1  0  0  0  0
  8 28  1  0  0  0  0
  8 29  1  0  0  0  0
 10 30  1  0  0  0  0
 10 31  1  0  0  0  0
 15 32  1  0  0  0  0
 15 33  1  0  0  0  0
 16 34  1  0  0  0  0
 16 35  1  0  0  0  0
 16 36  1  0  0  0  0
 18 37  1  0  0  0  0
 18 38  1  0  0  0  0
 19 39  1  0  0  0  0
 19 40  1  0  0  0  0
 19 41  1  0  0  0  0
M  END
