 xtb: 6.7.1 (edcfbbe)
          04092507313D

 38 37  0     0  0            999 V2000
    4.0358   -2.3229    0.1713 C   0  0  0  0  0  0  0  0  0  0  0  0
    2.6348   -2.6364   -0.3284 C   0  0  0  0  0  0  0  0  0  0  0  0
    1.9554   -1.4369   -0.7475 O   0  0  0  0  0  0  0  0  0  0  0  0
    2.1191   -1.0272   -1.9960 C   0  0  0  0  0  0  0  0  0  0  0  0
    2.7916   -1.6069   -2.8176 O   0  0  0  0  0  0  0  0  0  0  0  0
    1.3827    0.2639   -2.2865 C   0  0  0  0  0  0  0  0  0  0  0  0
    0.3474    0.6272   -1.2327 C   0  0  0  0  0  0  0  0  0  0  0  0
   -0.0811    1.6115   -1.4511 H   0  0  0  0  0  0  0  0  0  0  0  0
    0.9188    0.6788    0.1696 C   0  0  0  0  0  0  0  0  0  0  0  0
    0.3233    0.2201    1.1248 O   0  0  0  0  0  0  0  0  0  0  0  0
    2.0633    1.3003    0.2211 O   0  0  0  0  0  0  0  0  0  0  0  0
    2.6521    1.5321    1.5192 C   0  0  0  0  0  0  0  0  0  0  0  0
    2.1189    2.8233    2.1176 C   0  0  0  0  0  0  0  0  0  0  0  0
   -1.0301   -0.5708   -1.2070 S   0  0  0  0  0  0  0  0  0  0  0  0
   -2.1518    0.3093    0.3848 P   0  0  0  0  0  0  0  0  0  0  0  0
   -1.8907    2.1937    0.8462 S   0  0  0  0  0  0  0  0  0  0  0  0
   -3.6212    0.1938   -0.2258 O   0  0  0  0  0  0  0  0  0  0  0  0
   -4.1989   -1.0469   -0.6612 C   0  0  0  0  0  0  0  0  0  0  0  0
   -2.3008   -0.7570    1.5655 O   0  0  0  0  0  0  0  0  0  0  0  0
   -1.5853   -0.8138    2.7985 C   0  0  0  0  0  0  0  0  0  0  0  0
    3.9945   -1.6046    0.9859 H   0  0  0  0  0  0  0  0  0  0  0  0
    4.5009   -3.2372    0.5248 H   0  0  0  0  0  0  0  0  0  0  0  0
    4.6355   -1.9108   -0.6369 H   0  0  0  0  0  0  0  0  0  0  0  0
    2.0077   -3.0442    0.4651 H   0  0  0  0  0  0  0  0  0  0  0  0
    2.6699   -3.3253   -1.1768 H   0  0  0  0  0  0  0  0  0  0  0  0
    0.9144    0.1719   -3.2672 H   0  0  0  0  0  0  0  0  0  0  0  0
    2.1303    1.0595   -2.3409 H   0  0  0  0  0  0  0  0  0  0  0  0
    2.4235    0.6794    2.1636 H   0  0  0  0  0  0  0  0  0  0  0  0
    3.7229    1.5932    1.3252 H   0  0  0  0  0  0  0  0  0  0  0  0
    1.0372    2.7680    2.2307 H   0  0  0  0  0  0  0  0  0  0  0  0
    2.5687    2.9827    3.0918 H   0  0  0  0  0  0  0  0  0  0  0  0
    2.3547    3.6635    1.4708 H   0  0  0  0  0  0  0  0  0  0  0  0
   -5.1434   -0.7743   -1.1252 H   0  0  0  0  0  0  0  0  0  0  0  0
   -4.3617   -1.7012    0.1934 H   0  0  0  0  0  0  0  0  0  0  0  0
   -3.5415   -1.5312   -1.3844 H   0  0  0  0  0  0  0  0  0  0  0  0
   -0.6817   -1.4062    2.6718 H   0  0  0  0  0  0  0  0  0  0  0  0
   -2.2646   -1.2844    3.5063 H   0  0  0  0  0  0  0  0  0  0  0  0
   -1.3211    0.1901    3.1302 H   0  0  0  0  0  0  0  0  0  0  0  0
  1  2  1  0  0  0  0
  2  3  1  0  0  0  0
  3  4  1  0  0  0  0
  4  5  2  0  0  0  0
  4  6  1  0  0  0  0
  6  7  1  0  0  0  0
  7  8  1  0  0  0  0
  7  9  1  0  0  0  0
  9 10  2  0  0  0  0
  9 11  4  0  0  0  0
 11 12  1  0  0  0  0
 12 13  1  0  0  0  0
  7 14  1  0  0  0  0
 14 15  1  0  0  0  0
 15 16  2  0  0  0  0
 15 17  1  0  0  0  0
 17 18  1  0  0  0  0
 15 19  2  0  0  0  0
 19 20  1  0  0  0  0
  1 21  1  0  0  0  0
  1 22  1  0  0  0  0
  1 23  1  0  0  0  0
  2 24  1  0  0  0  0
  2 25  1  0  0  0  0
  6 26  1  0  0  0  0
  6 27  1  0  0  0  0
 12 28  1  0  0  0  0
 12 29  1  0  0  0  0
 13 30  1  0  0  0  0
 13 31  1  0  0  0  0
 13 32  1  0  0  0  0
 18 33  1  0  0  0  0
 18 34  1  0  0  0  0
 18 35  1  0  0  0  0
 20 36  1  0  0  0  0
 20 37  1  0  0  0  0
 20 38  1  0  0  0  0
M  END
