 xtb: 6.7.1 (edcfbbe)
          04092505203D

 41 40  0     0  0            999 V2000
    3.1882    1.6995   -2.3221 C   0  0  0  0  0  0  0  0  0  0  0  0
    3.3386    0.1965   -2.2064 C   0  0  0  0  0  0  0  0  0  0  0  0
    2.2960   -0.3941   -1.4041 O   0  0  0  0  0  0  0  0  0  0  0  0
    2.0767   -0.1267    0.1362 P   0  0  0  0  0  0  0  0  0  0  0  0
    1.3201    1.5689    0.7864 S   0  0  0  0  0  0  0  0  0  0  0  0
    3.5584   -0.3743    0.6784 O   0  0  0  0  0  0  0  0  0  0  0  0
    3.9778    0.0095    1.9971 C   0  0  0  0  0  0  0  0  0  0  0  0
    3.3312   -0.8436    3.0694 C   0  0  0  0  0  0  0  0  0  0  0  0
    0.9784   -1.8695    0.5859 S   0  0  0  0  0  0  0  0  0  0  0  0
   -0.3719   -1.1618    1.5908 C   0  0  0  0  0  0  0  0  0  0  0  0
   -2.0161   -1.3847    0.8668 S   0  0  0  0  0  0  0  0  0  0  0  0
   -2.0255    0.2062   -0.5492 P   0  0  0  0  0  0  0  0  0  0  0  0
   -0.7268    0.1816   -2.0126 S   0  0  0  0  0  0  0  0  0  0  0  0
   -1.9284    1.5202    0.3119 O   0  0  0  0  0  0  0  0  0  0  0  0
   -2.8683    1.8536    1.3680 C   0  0  0  0  0  0  0  0  0  0  0  0
   -2.1866    2.8337    2.2997 C   0  0  0  0  0  0  0  0  0  0  0  0
   -3.5467    0.2223   -1.0170 O   0  0  0  0  0  0  0  0  0  0  0  0
   -4.0330   -0.5678   -2.1159 C   0  0  0  0  0  0  0  0  0  0  0  0
   -3.9489   -2.0537   -1.8342 C   0  0  0  0  0  0  0  0  0  0  0  0
    2.1884    1.9446   -2.6759 H   0  0  0  0  0  0  0  0  0  0  0  0
    3.3366    2.1710   -1.3511 H   0  0  0  0  0  0  0  0  0  0  0  0
    3.9228    2.0860   -3.0213 H   0  0  0  0  0  0  0  0  0  0  0  0
    4.3044   -0.0727   -1.7717 H   0  0  0  0  0  0  0  0  0  0  0  0
    3.2137   -0.2905   -3.1751 H   0  0  0  0  0  0  0  0  0  0  0  0
    5.0607   -0.1204    1.9759 H   0  0  0  0  0  0  0  0  0  0  0  0
    3.7303    1.0658    2.1448 H   0  0  0  0  0  0  0  0  0  0  0  0
    3.4746   -1.8985    2.8500 H   0  0  0  0  0  0  0  0  0  0  0  0
    3.7764   -0.6096    4.0310 H   0  0  0  0  0  0  0  0  0  0  0  0
    2.2635   -0.6339    3.1135 H   0  0  0  0  0  0  0  0  0  0  0  0
   -0.1728   -0.0941    1.7290 H   0  0  0  0  0  0  0  0  0  0  0  0
   -0.3966   -1.6946    2.5374 H   0  0  0  0  0  0  0  0  0  0  0  0
   -3.7496    2.2909    0.8956 H   0  0  0  0  0  0  0  0  0  0  0  0
   -3.1549    0.9337    1.8861 H   0  0  0  0  0  0  0  0  0  0  0  0
   -1.9108    3.7333    1.7569 H   0  0  0  0  0  0  0  0  0  0  0  0
   -2.8645    3.0898    3.1072 H   0  0  0  0  0  0  0  0  0  0  0  0
   -1.2802    2.3970    2.7112 H   0  0  0  0  0  0  0  0  0  0  0  0
   -5.0654   -0.2361   -2.2351 H   0  0  0  0  0  0  0  0  0  0  0  0
   -3.4526   -0.3112   -3.0077 H   0  0  0  0  0  0  0  0  0  0  0  0
   -4.4376   -2.5990   -2.6353 H   0  0  0  0  0  0  0  0  0  0  0  0
   -2.9057   -2.3634   -1.7837 H   0  0  0  0  0  0  0  0  0  0  0  0
   -4.4307   -2.2884   -0.8883 H   0  0  0  0  0  0  0  0  0  0  0  0
  1  2  1  0  0  0  0
  2  3  1  0  0  0  0
  3  4  2  0  0  0  0
  4  5  2  0  0  0  0
  4  6  2  0  0  0  0
  6  7  1  0  0  0  0
  7  8  1  0  0  0  0
  4  9  1  0  0  0  0
  9 10  1  0  0  0  0
 10 11  1  0  0  0  0
 11 12  1  0  0  0  0
 12 13  2  0  0  0  0
 12 14  2  0  0  0  0
 14 15  1  0  0  0  0
 15 16  1  0  0  0  0
 12 17  2  0  0  0  0
 17 18  1  0  0  0  0
 18 19  1  0  0  0  0
  1 20  1  0  0  0  0
  1 21  1  0  0  0  0
  1 22  1  0  0  0  0
  2 23  1  0  0  0  0
  2 24  1  0  0  0  0
  7 25  1  0  0  0  0
  7 26  1  0  0  0  0
  8 27  1  0  0  0  0
  8 28  1  0  0  0  0
  8 29  1  0  0  0  0
 10 30  1  0  0  0  0
 10 31  1  0  0  0  0
 15 32  1  0  0  0  0
 15 33  1  0  0  0  0
 16 34  1  0  0  0  0
 16 35  1  0  0  0  0
 16 36  1  0  0  0  0
 18 37  1  0  0  0  0
 18 38  1  0  0  0  0
 19 39  1  0  0  0  0
 19 40  1  0  0  0  0
 19 41  1  0  0  0  0
M  END
