 xtb: 6.7.1 (edcfbbe)
          04092505203D

 41 40  0     0  0            999 V2000
    5.7080    0.9382   -0.8588 C   0  0  0  0  0  0  0  0  0  0  0  0
    4.3603    0.3392   -1.2061 C   0  0  0  0  0  0  0  0  0  0  0  0
    3.5521    0.3473   -0.0128 O   0  0  0  0  0  0  0  0  0  0  0  0
    1.9754    0.1943   -0.0846 P   0  0  0  0  0  0  0  0  0  0  0  0
    1.0961    1.4415   -1.3178 S   0  0  0  0  0  0  0  0  0  0  0  0
    1.5225    0.4290    1.4036 O   0  0  0  0  0  0  0  0  0  0  0  0
    1.7131   -0.4777    2.5247 C   0  0  0  0  0  0  0  0  0  0  0  0
    3.1507   -0.9109    2.7037 C   0  0  0  0  0  0  0  0  0  0  0  0
    1.7122   -1.8661   -0.5390 S   0  0  0  0  0  0  0  0  0  0  0  0
   -0.0408   -1.8038   -0.9630 C   0  0  0  0  0  0  0  0  0  0  0  0
   -1.0878   -1.4011    0.4723 S   0  0  0  0  0  0  0  0  0  0  0  0
   -2.1757    0.2693   -0.2822 P   0  0  0  0  0  0  0  0  0  0  0  0
   -2.2673    0.4477   -2.2248 S   0  0  0  0  0  0  0  0  0  0  0  0
   -1.5843    1.5331    0.4514 O   0  0  0  0  0  0  0  0  0  0  0  0
   -1.5024    1.6516    1.8928 C   0  0  0  0  0  0  0  0  0  0  0  0
   -2.6548    2.4729    2.4322 C   0  0  0  0  0  0  0  0  0  0  0  0
   -3.5848    0.1105    0.4437 O   0  0  0  0  0  0  0  0  0  0  0  0
   -4.6692   -0.6500   -0.1189 C   0  0  0  0  0  0  0  0  0  0  0  0
   -4.3597   -2.1302   -0.2084 C   0  0  0  0  0  0  0  0  0  0  0  0
    5.5834    1.9602   -0.5122 H   0  0  0  0  0  0  0  0  0  0  0  0
    6.1830    0.3547   -0.0758 H   0  0  0  0  0  0  0  0  0  0  0  0
    6.3372    0.9345   -1.7428 H   0  0  0  0  0  0  0  0  0  0  0  0
    4.4575   -0.6961   -1.5437 H   0  0  0  0  0  0  0  0  0  0  0  0
    3.8477    0.9213   -1.9797 H   0  0  0  0  0  0  0  0  0  0  0  0
    1.3613    0.1093    3.3744 H   0  0  0  0  0  0  0  0  0  0  0  0
    1.0578   -1.3405    2.3740 H   0  0  0  0  0  0  0  0  0  0  0  0
    3.2314   -1.4809    3.6243 H   0  0  0  0  0  0  0  0  0  0  0  0
    3.4657   -1.5372    1.8719 H   0  0  0  0  0  0  0  0  0  0  0  0
    3.8021   -0.0428    2.7589 H   0  0  0  0  0  0  0  0  0  0  0  0
   -0.3037   -2.7995   -1.3106 H   0  0  0  0  0  0  0  0  0  0  0  0
   -0.2150   -1.0535   -1.7396 H   0  0  0  0  0  0  0  0  0  0  0  0
   -1.4902    0.6485    2.3297 H   0  0  0  0  0  0  0  0  0  0  0  0
   -0.5419    2.1413    2.0686 H   0  0  0  0  0  0  0  0  0  0  0  0
   -2.6775    3.4441    1.9454 H   0  0  0  0  0  0  0  0  0  0  0  0
   -3.5976    1.9653    2.2478 H   0  0  0  0  0  0  0  0  0  0  0  0
   -2.5214    2.6091    3.5008 H   0  0  0  0  0  0  0  0  0  0  0  0
   -5.5008   -0.4535    0.5593 H   0  0  0  0  0  0  0  0  0  0  0  0
   -4.8923   -0.2446   -1.1104 H   0  0  0  0  0  0  0  0  0  0  0  0
   -4.0172   -2.5068    0.7521 H   0  0  0  0  0  0  0  0  0  0  0  0
   -5.2570   -2.6628   -0.5066 H   0  0  0  0  0  0  0  0  0  0  0  0
   -3.5858   -2.3025   -0.9549 H   0  0  0  0  0  0  0  0  0  0  0  0
  1  2  1  0  0  0  0
  2  3  1  0  0  0  0
  3  4  2  0  0  0  0
  4  5  2  0  0  0  0
  4  6  2  0  0  0  0
  6  7  1  0  0  0  0
  7  8  1  0  0  0  0
  4  9  1  0  0  0  0
  9 10  1  0  0  0  0
 10 11  1  0  0  0  0
 11 12  1  0  0  0  0
 12 13  2  0  0  0  0
 12 14  2  0  0  0  0
 14 15  1  0  0  0  0
 15 16  1  0  0  0  0
 12 17  2  0  0  0  0
 17 18  1  0  0  0  0
 18 19  1  0  0  0  0
  1 20  1  0  0  0  0
  1 21  1  0  0  0  0
  1 22  1  0  0  0  0
  2 23  1  0  0  0  0
  2 24  1  0  0  0  0
  7 25  1  0  0  0  0
  7 26  1  0  0  0  0
  8 27  1  0  0  0  0
  8 28  1  0  0  0  0
  8 29  1  0  0  0  0
 10 30  1  0  0  0  0
 10 31  1  0  0  0  0
 15 32  1  0  0  0  0
 15 33  1  0  0  0  0
 16 34  1  0  0  0  0
 16 35  1  0  0  0  0
 16 36  1  0  0  0  0
 18 37  1  0  0  0  0
 18 38  1  0  0  0  0
 19 39  1  0  0  0  0
 19 40  1  0  0  0  0
 19 41  1  0  0  0  0
M  END
