 xtb: 6.7.1 (edcfbbe)
          04092505213D

 41 40  0     0  0            999 V2000
    3.1654    2.4982    0.6181 C   0  0  0  0  0  0  0  0  0  0  0  0
    2.0770    1.9255    1.5000 C   0  0  0  0  0  0  0  0  0  0  0  0
    2.2480    0.5184    1.7950 O   0  0  0  0  0  0  0  0  0  0  0  0
    2.4633   -0.6527    0.7636 P   0  0  0  0  0  0  0  0  0  0  0  0
    2.0573   -2.3494    1.6550 S   0  0  0  0  0  0  0  0  0  0  0  0
    3.9607   -0.4227    0.2912 O   0  0  0  0  0  0  0  0  0  0  0  0
    4.5602   -0.9770   -0.8940 C   0  0  0  0  0  0  0  0  0  0  0  0
    4.4224   -2.4828   -0.9766 C   0  0  0  0  0  0  0  0  0  0  0  0
    1.3021   -0.2198   -0.9742 S   0  0  0  0  0  0  0  0  0  0  0  0
   -0.2143   -1.0149   -0.4080 C   0  0  0  0  0  0  0  0  0  0  0  0
   -1.1339   -0.0049    0.7894 S   0  0  0  0  0  0  0  0  0  0  0  0
   -2.7552    0.6395   -0.4540 P   0  0  0  0  0  0  0  0  0  0  0  0
   -2.8091   -0.1222   -2.2658 S   0  0  0  0  0  0  0  0  0  0  0  0
   -2.7916    2.2131   -0.3068 O   0  0  0  0  0  0  0  0  0  0  0  0
   -1.6560    3.0895   -0.4193 C   0  0  0  0  0  0  0  0  0  0  0  0
   -0.8847    2.8942   -1.7091 C   0  0  0  0  0  0  0  0  0  0  0  0
   -4.0696    0.3866    0.3925 O   0  0  0  0  0  0  0  0  0  0  0  0
   -4.8323   -0.8244    0.2710 C   0  0  0  0  0  0  0  0  0  0  0  0
   -4.1076   -2.0149    0.8684 C   0  0  0  0  0  0  0  0  0  0  0  0
    3.0364    3.5745    0.5566 H   0  0  0  0  0  0  0  0  0  0  0  0
    4.1435    2.2777    1.0375 H   0  0  0  0  0  0  0  0  0  0  0  0
    3.1057    2.0774   -0.3836 H   0  0  0  0  0  0  0  0  0  0  0  0
    1.0946    2.0493    1.0362 H   0  0  0  0  0  0  0  0  0  0  0  0
    2.0751    2.3860    2.4892 H   0  0  0  0  0  0  0  0  0  0  0  0
    4.1004   -0.4999   -1.7640 H   0  0  0  0  0  0  0  0  0  0  0  0
    5.6067   -0.6774   -0.8158 H   0  0  0  0  0  0  0  0  0  0  0  0
    4.8146   -2.9503   -0.0763 H   0  0  0  0  0  0  0  0  0  0  0  0
    3.3745   -2.7618   -1.0775 H   0  0  0  0  0  0  0  0  0  0  0  0
    4.9698   -2.8485   -1.8395 H   0  0  0  0  0  0  0  0  0  0  0  0
    0.0498   -1.9516    0.0856 H   0  0  0  0  0  0  0  0  0  0  0  0
   -0.8405   -1.1800   -1.2888 H   0  0  0  0  0  0  0  0  0  0  0  0
   -2.0975    4.0864   -0.3674 H   0  0  0  0  0  0  0  0  0  0  0  0
   -1.0140    2.9297    0.4522 H   0  0  0  0  0  0  0  0  0  0  0  0
   -0.4230    1.9070   -1.7372 H   0  0  0  0  0  0  0  0  0  0  0  0
   -1.5517    2.9832   -2.5633 H   0  0  0  0  0  0  0  0  0  0  0  0
   -0.1066    3.6474   -1.7825 H   0  0  0  0  0  0  0  0  0  0  0  0
   -5.7571   -0.6076    0.8071 H   0  0  0  0  0  0  0  0  0  0  0  0
   -5.0498   -0.9983   -0.7882 H   0  0  0  0  0  0  0  0  0  0  0  0
   -3.2276   -2.2552    0.2723 H   0  0  0  0  0  0  0  0  0  0  0  0
   -3.7940   -1.7950    1.8861 H   0  0  0  0  0  0  0  0  0  0  0  0
   -4.7700   -2.8745    0.8745 H   0  0  0  0  0  0  0  0  0  0  0  0
  1  2  1  0  0  0  0
  2  3  1  0  0  0  0
  3  4  2  0  0  0  0
  4  5  2  0  0  0  0
  4  6  2  0  0  0  0
  6  7  1  0  0  0  0
  7  8  1  0  0  0  0
  4  9  1  0  0  0  0
  9 10  1  0  0  0  0
 10 11  1  0  0  0  0
 11 12  1  0  0  0  0
 12 13  2  0  0  0  0
 12 14  2  0  0  0  0
 14 15  1  0  0  0  0
 15 16  1  0  0  0  0
 12 17  2  0  0  0  0
 17 18  1  0  0  0  0
 18 19  1  0  0  0  0
  1 20  1  0  0  0  0
  1 21  1  0  0  0  0
  1 22  1  0  0  0  0
  2 23  1  0  0  0  0
  2 24  1  0  0  0  0
  7 25  1  0  0  0  0
  7 26  1  0  0  0  0
  8 27  1  0  0  0  0
  8 28  1  0  0  0  0
  8 29  1  0  0  0  0
 10 30  1  0  0  0  0
 10 31  1  0  0  0  0
 15 32  1  0  0  0  0
 15 33  1  0  0  0  0
 16 34  1  0  0  0  0
 16 35  1  0  0  0  0
 16 36  1  0  0  0  0
 18 37  1  0  0  0  0
 18 38  1  0  0  0  0
 19 39  1  0  0  0  0
 19 40  1  0  0  0  0
 19 41  1  0  0  0  0
M  END
