 xtb: 6.7.1 (edcfbbe)
          04092507313D

 38 37  0     0  0            999 V2000
    5.1102   -3.0811    0.3067 C   0  0  0  0  0  0  0  0  0  0  0  0
    4.3584   -1.7825    0.5197 C   0  0  0  0  0  0  0  0  0  0  0  0
    3.1250   -1.8557   -0.2255 O   0  0  0  0  0  0  0  0  0  0  0  0
    2.3665   -0.7863   -0.2681 C   0  0  0  0  0  0  0  0  0  0  0  0
    2.6457    0.2712    0.2631 O   0  0  0  0  0  0  0  0  0  0  0  0
    1.0865   -1.0250   -1.0323 C   0  0  0  0  0  0  0  0  0  0  0  0
    0.4374    0.3021   -1.4066 C   0  0  0  0  0  0  0  0  0  0  0  0
    0.8853    0.7388   -2.3002 H   0  0  0  0  0  0  0  0  0  0  0  0
    0.4946    1.3138   -0.2768 C   0  0  0  0  0  0  0  0  0  0  0  0
   -0.0600    1.1195    0.7894 O   0  0  0  0  0  0  0  0  0  0  0  0
    1.0563    2.4311   -0.6499 O   0  0  0  0  0  0  0  0  0  0  0  0
    1.2011    3.5036    0.3051 C   0  0  0  0  0  0  0  0  0  0  0  0
    2.6543    3.6142    0.7337 C   0  0  0  0  0  0  0  0  0  0  0  0
   -1.3386    0.1098   -1.7887 S   0  0  0  0  0  0  0  0  0  0  0  0
   -2.2075   -0.2728    0.0974 P   0  0  0  0  0  0  0  0  0  0  0  0
   -1.4578   -1.5806    1.3646 S   0  0  0  0  0  0  0  0  0  0  0  0
   -2.6827    1.1504    0.6268 O   0  0  0  0  0  0  0  0  0  0  0  0
   -2.7927    1.4534    2.0239 C   0  0  0  0  0  0  0  0  0  0  0  0
   -3.6433   -0.7686   -0.4258 O   0  0  0  0  0  0  0  0  0  0  0  0
   -3.8392   -2.0800   -0.9634 C   0  0  0  0  0  0  0  0  0  0  0  0
    6.0397   -3.0523    0.8653 H   0  0  0  0  0  0  0  0  0  0  0  0
    4.5098   -3.9174    0.6513 H   0  0  0  0  0  0  0  0  0  0  0  0
    5.3287   -3.2169   -0.7481 H   0  0  0  0  0  0  0  0  0  0  0  0
    4.9248   -0.9167    0.1626 H   0  0  0  0  0  0  0  0  0  0  0  0
    4.1116   -1.6229    1.5738 H   0  0  0  0  0  0  0  0  0  0  0  0
    0.4358   -1.5909   -0.3544 H   0  0  0  0  0  0  0  0  0  0  0  0
    1.2723   -1.6397   -1.9112 H   0  0  0  0  0  0  0  0  0  0  0  0
    0.8686    4.4002   -0.2207 H   0  0  0  0  0  0  0  0  0  0  0  0
    0.5496    3.2988    1.1590 H   0  0  0  0  0  0  0  0  0  0  0  0
    3.2799    3.8402   -0.1246 H   0  0  0  0  0  0  0  0  0  0  0  0
    2.7534    4.4020    1.4729 H   0  0  0  0  0  0  0  0  0  0  0  0
    2.9811    2.6702    1.1635 H   0  0  0  0  0  0  0  0  0  0  0  0
   -1.8843    1.1451    2.5432 H   0  0  0  0  0  0  0  0  0  0  0  0
   -3.6568    0.9439    2.4488 H   0  0  0  0  0  0  0  0  0  0  0  0
   -2.9151    2.5322    2.0772 H   0  0  0  0  0  0  0  0  0  0  0  0
   -4.9146   -2.2379   -0.9676 H   0  0  0  0  0  0  0  0  0  0  0  0
   -3.3472   -2.8198   -0.3289 H   0  0  0  0  0  0  0  0  0  0  0  0
   -3.4395   -2.1299   -1.9757 H   0  0  0  0  0  0  0  0  0  0  0  0
  1  2  1  0  0  0  0
  2  3  1  0  0  0  0
  3  4  4  0  0  0  0
  4  5  2  0  0  0  0
  4  6  1  0  0  0  0
  6  7  1  0  0  0  0
  7  8  1  0  0  0  0
  7  9  1  0  0  0  0
  9 10  2  0  0  0  0
  9 11  4  0  0  0  0
 11 12  1  0  0  0  0
 12 13  1  0  0  0  0
  7 14  1  0  0  0  0
 14 15  1  0  0  0  0
 15 16  2  0  0  0  0
 15 17  1  0  0  0  0
 17 18  1  0  0  0  0
 15 19  1  0  0  0  0
 19 20  1  0  0  0  0
  1 21  1  0  0  0  0
  1 22  1  0  0  0  0
  1 23  1  0  0  0  0
  2 24  1  0  0  0  0
  2 25  1  0  0  0  0
  6 26  1  0  0  0  0
  6 27  1  0  0  0  0
 12 28  1  0  0  0  0
 12 29  1  0  0  0  0
 13 30  1  0  0  0  0
 13 31  1  0  0  0  0
 13 32  1  0  0  0  0
 18 33  1  0  0  0  0
 18 34  1  0  0  0  0
 18 35  1  0  0  0  0
 20 36  1  0  0  0  0
 20 37  1  0  0  0  0
 20 38  1  0  0  0  0
M  END
