 xtb: 6.7.1 (edcfbbe)
          04092507313D

 38 37  0     0  0            999 V2000
    2.0626   -3.2453   -2.8247 C   0  0  0  0  0  0  0  0  0  0  0  0
    3.0577   -3.0546   -1.6909 C   0  0  0  0  0  0  0  0  0  0  0  0
    2.8735   -1.7646   -1.0762 O   0  0  0  0  0  0  0  0  0  0  0  0
    2.0443   -1.6651   -0.0584 C   0  0  0  0  0  0  0  0  0  0  0  0
    1.4721   -2.5955    0.4642 O   0  0  0  0  0  0  0  0  0  0  0  0
    1.8605   -0.2179    0.3610 C   0  0  0  0  0  0  0  0  0  0  0  0
    0.9905    0.4795   -0.6861 C   0  0  0  0  0  0  0  0  0  0  0  0
    1.5518    0.5975   -1.6181 H   0  0  0  0  0  0  0  0  0  0  0  0
    0.4945    1.8462   -0.2442 C   0  0  0  0  0  0  0  0  0  0  0  0
   -0.6286    2.2429   -0.4869 O   0  0  0  0  0  0  0  0  0  0  0  0
    1.4149    2.5260    0.3781 O   0  0  0  0  0  0  0  0  0  0  0  0
    1.0596    3.8323    0.8807 C   0  0  0  0  0  0  0  0  0  0  0  0
    2.3151    4.4754    1.4330 C   0  0  0  0  0  0  0  0  0  0  0  0
   -0.4678   -0.5084   -1.1658 S   0  0  0  0  0  0  0  0  0  0  0  0
   -1.7831   -0.0634    0.4422 P   0  0  0  0  0  0  0  0  0  0  0  0
   -1.0803    0.6292    2.1331 S   0  0  0  0  0  0  0  0  0  0  0  0
   -2.9898    0.7886   -0.1111 O   0  0  0  0  0  0  0  0  0  0  0  0
   -3.6789    0.4690   -1.3353 C   0  0  0  0  0  0  0  0  0  0  0  0
   -2.5095   -1.4861    0.6124 O   0  0  0  0  0  0  0  0  0  0  0  0
   -1.8538   -2.5776    1.2653 C   0  0  0  0  0  0  0  0  0  0  0  0
    2.1871   -2.4645   -3.5693 H   0  0  0  0  0  0  0  0  0  0  0  0
    2.2261   -4.2124   -3.2882 H   0  0  0  0  0  0  0  0  0  0  0  0
    1.0455   -3.2009   -2.4411 H   0  0  0  0  0  0  0  0  0  0  0  0
    4.0841   -3.0445   -2.0577 H   0  0  0  0  0  0  0  0  0  0  0  0
    2.9324   -3.8267   -0.9268 H   0  0  0  0  0  0  0  0  0  0  0  0
    2.8255    0.2848    0.4100 H   0  0  0  0  0  0  0  0  0  0  0  0
    1.3771   -0.1936    1.3392 H   0  0  0  0  0  0  0  0  0  0  0  0
    0.6247    4.4109    0.0603 H   0  0  0  0  0  0  0  0  0  0  0  0
    0.2950    3.6949    1.6521 H   0  0  0  0  0  0  0  0  0  0  0  0
    2.0701    5.4588    1.8197 H   0  0  0  0  0  0  0  0  0  0  0  0
    2.7208    3.8670    2.2353 H   0  0  0  0  0  0  0  0  0  0  0  0
    3.0608    4.5728    0.6499 H   0  0  0  0  0  0  0  0  0  0  0  0
   -4.4520    1.2272   -1.4273 H   0  0  0  0  0  0  0  0  0  0  0  0
   -4.1135   -0.5270   -1.2687 H   0  0  0  0  0  0  0  0  0  0  0  0
   -2.9849    0.5243   -2.1739 H   0  0  0  0  0  0  0  0  0  0  0  0
   -0.9157   -2.8242    0.7657 H   0  0  0  0  0  0  0  0  0  0  0  0
   -2.5488   -3.4108    1.2096 H   0  0  0  0  0  0  0  0  0  0  0  0
   -1.6475   -2.3170    2.3041 H   0  0  0  0  0  0  0  0  0  0  0  0
  1  2  1  0  0  0  0
  2  3  1  0  0  0  0
  3  4  1  0  0  0  0
  4  5  2  0  0  0  0
  4  6  1  0  0  0  0
  6  7  1  0  0  0  0
  7  8  1  0  0  0  0
  7  9  1  0  0  0  0
  9 10  2  0  0  0  0
  9 11  4  0  0  0  0
 11 12  1  0  0  0  0
 12 13  1  0  0  0  0
  7 14  1  0  0  0  0
 14 15  1  0  0  0  0
 15 16  2  0  0  0  0
 15 17  2  0  0  0  0
 17 18  1  0  0  0  0
 15 19  1  0  0  0  0
 19 20  1  0  0  0  0
  1 21  1  0  0  0  0
  1 22  1  0  0  0  0
  1 23  1  0  0  0  0
  2 24  1  0  0  0  0
  2 25  1  0  0  0  0
  6 26  1  0  0  0  0
  6 27  1  0  0  0  0
 12 28  1  0  0  0  0
 12 29  1  0  0  0  0
 13 30  1  0  0  0  0
 13 31  1  0  0  0  0
 13 32  1  0  0  0  0
 18 33  1  0  0  0  0
 18 34  1  0  0  0  0
 18 35  1  0  0  0  0
 20 36  1  0  0  0  0
 20 37  1  0  0  0  0
 20 38  1  0  0  0  0
M  END
