 xtb: 6.7.1 (edcfbbe)
          04092507313D

 38 37  0     0  0            999 V2000
    3.9537   -3.0859   -2.7650 C   0  0  0  0  0  0  0  0  0  0  0  0
    2.8689   -3.2893   -1.7264 C   0  0  0  0  0  0  0  0  0  0  0  0
    2.7756   -2.0867   -0.9361 O   0  0  0  0  0  0  0  0  0  0  0  0
    1.8458   -2.0339   -0.0087 C   0  0  0  0  0  0  0  0  0  0  0  0
    1.0739   -2.9358    0.2362 O   0  0  0  0  0  0  0  0  0  0  0  0
    1.8214   -0.6879    0.6885 C   0  0  0  0  0  0  0  0  0  0  0  0
    1.2544    0.3628   -0.2681 C   0  0  0  0  0  0  0  0  0  0  0  0
    1.9581    0.5244   -1.0918 H   0  0  0  0  0  0  0  0  0  0  0  0
    1.0461    1.6976    0.4311 C   0  0  0  0  0  0  0  0  0  0  0  0
    1.8323    2.1302    1.2379 O   0  0  0  0  0  0  0  0  0  0  0  0
   -0.0448    2.3150    0.0211 O   0  0  0  0  0  0  0  0  0  0  0  0
   -0.3355    3.6168    0.5690 C   0  0  0  0  0  0  0  0  0  0  0  0
    0.3415    4.7046   -0.2468 C   0  0  0  0  0  0  0  0  0  0  0  0
   -0.2619   -0.2113   -1.1041 S   0  0  0  0  0  0  0  0  0  0  0  0
   -1.7175    0.0922    0.4170 P   0  0  0  0  0  0  0  0  0  0  0  0
   -1.1597    0.3619    2.2765 S   0  0  0  0  0  0  0  0  0  0  0  0
   -2.6736    1.2426   -0.0880 O   0  0  0  0  0  0  0  0  0  0  0  0
   -3.2736    1.2294   -1.3996 C   0  0  0  0  0  0  0  0  0  0  0  0
   -2.6600   -1.1865    0.2037 O   0  0  0  0  0  0  0  0  0  0  0  0
   -2.2794   -2.4781    0.6894 C   0  0  0  0  0  0  0  0  0  0  0  0
    4.9007   -2.8745   -2.2777 H   0  0  0  0  0  0  0  0  0  0  0  0
    4.0513   -3.9868   -3.3613 H   0  0  0  0  0  0  0  0  0  0  0  0
    3.6986   -2.2535   -3.4136 H   0  0  0  0  0  0  0  0  0  0  0  0
    3.0975   -4.1231   -1.0556 H   0  0  0  0  0  0  0  0  0  0  0  0
    1.8924   -3.4728   -2.1851 H   0  0  0  0  0  0  0  0  0  0  0  0
    2.8300   -0.3905    0.9753 H   0  0  0  0  0  0  0  0  0  0  0  0
    1.1988   -0.7649    1.5818 H   0  0  0  0  0  0  0  0  0  0  0  0
   -1.4226    3.6918    0.5263 H   0  0  0  0  0  0  0  0  0  0  0  0
   -0.0004    3.6321    1.6100 H   0  0  0  0  0  0  0  0  0  0  0  0
    1.4223    4.6087   -0.1732 H   0  0  0  0  0  0  0  0  0  0  0  0
    0.0458    4.6305   -1.2896 H   0  0  0  0  0  0  0  0  0  0  0  0
    0.0467    5.6735    0.1421 H   0  0  0  0  0  0  0  0  0  0  0  0
   -3.8087    2.1723   -1.4756 H   0  0  0  0  0  0  0  0  0  0  0  0
   -3.9575    0.3875   -1.4854 H   0  0  0  0  0  0  0  0  0  0  0  0
   -2.4971    1.1610   -2.1613 H   0  0  0  0  0  0  0  0  0  0  0  0
   -3.0783   -3.1500    0.3880 H   0  0  0  0  0  0  0  0  0  0  0  0
   -2.1874   -2.4534    1.7759 H   0  0  0  0  0  0  0  0  0  0  0  0
   -1.3283   -2.7934    0.2572 H   0  0  0  0  0  0  0  0  0  0  0  0
  1  2  1  0  0  0  0
  2  3  1  0  0  0  0
  3  4  4  0  0  0  0
  4  5  2  0  0  0  0
  4  6  1  0  0  0  0
  6  7  1  0  0  0  0
  7  8  1  0  0  0  0
  7  9  1  0  0  0  0
  9 10  2  0  0  0  0
  9 11  1  0  0  0  0
 11 12  1  0  0  0  0
 12 13  1  0  0  0  0
  7 14  1  0  0  0  0
 14 15  1  0  0  0  0
 15 16  2  0  0  0  0
 15 17  2  0  0  0  0
 17 18  1  0  0  0  0
 15 19  1  0  0  0  0
 19 20  1  0  0  0  0
  1 21  1  0  0  0  0
  1 22  1  0  0  0  0
  1 23  1  0  0  0  0
  2 24  1  0  0  0  0
  2 25  1  0  0  0  0
  6 26  1  0  0  0  0
  6 27  1  0  0  0  0
 12 28  1  0  0  0  0
 12 29  1  0  0  0  0
 13 30  1  0  0  0  0
 13 31  1  0  0  0  0
 13 32  1  0  0  0  0
 18 33  1  0  0  0  0
 18 34  1  0  0  0  0
 18 35  1  0  0  0  0
 20 36  1  0  0  0  0
 20 37  1  0  0  0  0
 20 38  1  0  0  0  0
M  END
