 xtb: 6.7.1 (edcfbbe)
          04092505213D

 41 40  0     0  0            999 V2000
    3.0203    2.4914   -0.9820 C   0  0  0  0  0  0  0  0  0  0  0  0
    2.2379    1.2501   -1.3550 C   0  0  0  0  0  0  0  0  0  0  0  0
    1.3327    0.8825   -0.2798 O   0  0  0  0  0  0  0  0  0  0  0  0
    1.6729   -0.2453    0.7765 P   0  0  0  0  0  0  0  0  0  0  0  0
    0.4842   -0.1435    2.3255 S   0  0  0  0  0  0  0  0  0  0  0  0
    3.2095    0.0220    1.0779 O   0  0  0  0  0  0  0  0  0  0  0  0
    4.1310   -0.9556    1.5973 C   0  0  0  0  0  0  0  0  0  0  0  0
    3.6282   -1.6349    2.8533 C   0  0  0  0  0  0  0  0  0  0  0  0
    1.7663   -2.0619   -0.3523 S   0  0  0  0  0  0  0  0  0  0  0  0
    0.2236   -1.9385   -1.2955 C   0  0  0  0  0  0  0  0  0  0  0  0
   -1.2639   -1.6960   -0.2807 S   0  0  0  0  0  0  0  0  0  0  0  0
   -1.8271    0.2383   -0.9147 P   0  0  0  0  0  0  0  0  0  0  0  0
   -1.0760    0.8889   -2.5960 S   0  0  0  0  0  0  0  0  0  0  0  0
   -1.5314    1.1486    0.3585 O   0  0  0  0  0  0  0  0  0  0  0  0
   -1.2742    2.5572    0.2600 C   0  0  0  0  0  0  0  0  0  0  0  0
   -2.5501    3.3341    0.0094 C   0  0  0  0  0  0  0  0  0  0  0  0
   -3.4070    0.1316   -1.0511 O   0  0  0  0  0  0  0  0  0  0  0  0
   -4.2867   -0.6589   -0.2217 C   0  0  0  0  0  0  0  0  0  0  0  0
   -4.1873   -0.3037    1.2471 C   0  0  0  0  0  0  0  0  0  0  0  0
    3.6579    2.7686   -1.8156 H   0  0  0  0  0  0  0  0  0  0  0  0
    2.3409    3.3107   -0.7632 H   0  0  0  0  0  0  0  0  0  0  0  0
    3.6329    2.3000   -0.1048 H   0  0  0  0  0  0  0  0  0  0  0  0
    2.9045    0.4096   -1.5632 H   0  0  0  0  0  0  0  0  0  0  0  0
    1.5896    1.4291   -2.2166 H   0  0  0  0  0  0  0  0  0  0  0  0
    4.3220   -1.6926    0.8120 H   0  0  0  0  0  0  0  0  0  0  0  0
    5.0354   -0.3766    1.7920 H   0  0  0  0  0  0  0  0  0  0  0  0
    4.3965   -2.2995    3.2348 H   0  0  0  0  0  0  0  0  0  0  0  0
    3.3789   -0.8967    3.6119 H   0  0  0  0  0  0  0  0  0  0  0  0
    2.7334   -2.2159    2.6330 H   0  0  0  0  0  0  0  0  0  0  0  0
    0.1233   -2.8979   -1.7979 H   0  0  0  0  0  0  0  0  0  0  0  0
    0.2853   -1.1227   -2.0215 H   0  0  0  0  0  0  0  0  0  0  0  0
   -0.8171    2.8097    1.2186 H   0  0  0  0  0  0  0  0  0  0  0  0
   -0.5531    2.7249   -0.5464 H   0  0  0  0  0  0  0  0  0  0  0  0
   -2.3218    4.3939   -0.0427 H   0  0  0  0  0  0  0  0  0  0  0  0
   -2.9922    3.0169   -0.9353 H   0  0  0  0  0  0  0  0  0  0  0  0
   -3.2629    3.1582    0.8106 H   0  0  0  0  0  0  0  0  0  0  0  0
   -5.2762   -0.4360   -0.6244 H   0  0  0  0  0  0  0  0  0  0  0  0
   -4.0506   -1.7142   -0.3820 H   0  0  0  0  0  0  0  0  0  0  0  0
   -3.1815   -0.4981    1.6193 H   0  0  0  0  0  0  0  0  0  0  0  0
   -4.4185    0.7471    1.4017 H   0  0  0  0  0  0  0  0  0  0  0  0
   -4.8912   -0.9110    1.8076 H   0  0  0  0  0  0  0  0  0  0  0  0
  1  2  1  0  0  0  0
  2  3  1  0  0  0  0
  3  4  2  0  0  0  0
  4  5  2  0  0  0  0
  4  6  2  0  0  0  0
  6  7  1  0  0  0  0
  7  8  1  0  0  0  0
  4  9  1  0  0  0  0
  9 10  1  0  0  0  0
 10 11  1  0  0  0  0
 11 12  1  0  0  0  0
 12 13  2  0  0  0  0
 12 14  1  0  0  0  0
 14 15  1  0  0  0  0
 15 16  1  0  0  0  0
 12 17  2  0  0  0  0
 17 18  1  0  0  0  0
 18 19  1  0  0  0  0
  1 20  1  0  0  0  0
  1 21  1  0  0  0  0
  1 22  1  0  0  0  0
  2 23  1  0  0  0  0
  2 24  1  0  0  0  0
  7 25  1  0  0  0  0
  7 26  1  0  0  0  0
  8 27  1  0  0  0  0
  8 28  1  0  0  0  0
  8 29  1  0  0  0  0
 10 30  1  0  0  0  0
 10 31  1  0  0  0  0
 15 32  1  0  0  0  0
 15 33  1  0  0  0  0
 16 34  1  0  0  0  0
 16 35  1  0  0  0  0
 16 36  1  0  0  0  0
 18 37  1  0  0  0  0
 18 38  1  0  0  0  0
 19 39  1  0  0  0  0
 19 40  1  0  0  0  0
 19 41  1  0  0  0  0
M  END
