 xtb: 6.7.1 (edcfbbe)
          04092507313D

 38 37  0     0  0            999 V2000
    1.8991   -3.2769    0.2861 C   0  0  0  0  0  0  0  0  0  0  0  0
    2.8348   -2.8437   -0.8315 C   0  0  0  0  0  0  0  0  0  0  0  0
    2.2193   -1.8001   -1.6094 O   0  0  0  0  0  0  0  0  0  0  0  0
    2.4366   -0.5483   -1.2736 C   0  0  0  0  0  0  0  0  0  0  0  0
    3.2008   -0.1832   -0.4052 O   0  0  0  0  0  0  0  0  0  0  0  0
    1.5674    0.4021   -2.0767 C   0  0  0  0  0  0  0  0  0  0  0  0
    0.3303    0.7240   -1.2307 C   0  0  0  0  0  0  0  0  0  0  0  0
   -0.2336    1.5469   -1.6747 H   0  0  0  0  0  0  0  0  0  0  0  0
    0.7646    1.1002    0.1771 C   0  0  0  0  0  0  0  0  0  0  0  0
    0.6298    0.3516    1.1251 O   0  0  0  0  0  0  0  0  0  0  0  0
    1.3013    2.2870    0.2014 O   0  0  0  0  0  0  0  0  0  0  0  0
    1.8481    2.7839    1.4401 C   0  0  0  0  0  0  0  0  0  0  0  0
    3.3658    2.7477    1.3803 C   0  0  0  0  0  0  0  0  0  0  0  0
   -0.7581   -0.7352   -1.1124 S   0  0  0  0  0  0  0  0  0  0  0  0
   -2.0312   -0.0204    0.4263 P   0  0  0  0  0  0  0  0  0  0  0  0
   -2.1180    1.9239    0.6426 S   0  0  0  0  0  0  0  0  0  0  0  0
   -3.4305   -0.6791    0.0055 O   0  0  0  0  0  0  0  0  0  0  0  0
   -4.1373   -0.2416   -1.1606 C   0  0  0  0  0  0  0  0  0  0  0  0
   -1.7696   -0.8019    1.7714 O   0  0  0  0  0  0  0  0  0  0  0  0
   -1.7694   -2.2426    1.8330 C   0  0  0  0  0  0  0  0  0  0  0  0
    1.6851   -2.4320    0.9399 H   0  0  0  0  0  0  0  0  0  0  0  0
    0.9666   -3.6424   -0.1355 H   0  0  0  0  0  0  0  0  0  0  0  0
    2.3663   -4.0641    0.8681 H   0  0  0  0  0  0  0  0  0  0  0  0
    3.0126   -3.6530   -1.5395 H   0  0  0  0  0  0  0  0  0  0  0  0
    3.7804   -2.4696   -0.4288 H   0  0  0  0  0  0  0  0  0  0  0  0
    1.2638   -0.0696   -3.0098 H   0  0  0  0  0  0  0  0  0  0  0  0
    2.1147    1.3268   -2.2589 H   0  0  0  0  0  0  0  0  0  0  0  0
    1.4694    3.8036    1.5283 H   0  0  0  0  0  0  0  0  0  0  0  0
    1.4639    2.1691    2.2587 H   0  0  0  0  0  0  0  0  0  0  0  0
    3.7699    3.0798    2.3306 H   0  0  0  0  0  0  0  0  0  0  0  0
    3.7027    1.7326    1.1799 H   0  0  0  0  0  0  0  0  0  0  0  0
    3.7242    3.3978    0.5879 H   0  0  0  0  0  0  0  0  0  0  0  0
   -5.1213   -0.6983   -1.0933 H   0  0  0  0  0  0  0  0  0  0  0  0
   -3.6160   -0.5776   -2.0566 H   0  0  0  0  0  0  0  0  0  0  0  0
   -4.2205    0.8463   -1.1609 H   0  0  0  0  0  0  0  0  0  0  0  0
   -1.3506   -2.4855    2.8060 H   0  0  0  0  0  0  0  0  0  0  0  0
   -1.1479   -2.6502    1.0358 H   0  0  0  0  0  0  0  0  0  0  0  0
   -2.7894   -2.6108    1.7406 H   0  0  0  0  0  0  0  0  0  0  0  0
  1  2  1  0  0  0  0
  2  3  1  0  0  0  0
  3  4  4  0  0  0  0
  4  5  2  0  0  0  0
  4  6  1  0  0  0  0
  6  7  1  0  0  0  0
  7  8  1  0  0  0  0
  7  9  1  0  0  0  0
  9 10  2  0  0  0  0
  9 11  4  0  0  0  0
 11 12  1  0  0  0  0
 12 13  1  0  0  0  0
  7 14  1  0  0  0  0
 14 15  1  0  0  0  0
 15 16  2  0  0  0  0
 15 17  1  0  0  0  0
 17 18  1  0  0  0  0
 15 19  2  0  0  0  0
 19 20  1  0  0  0  0
  1 21  1  0  0  0  0
  1 22  1  0  0  0  0
  1 23  1  0  0  0  0
  2 24  1  0  0  0  0
  2 25  1  0  0  0  0
  6 26  1  0  0  0  0
  6 27  1  0  0  0  0
 12 28  1  0  0  0  0
 12 29  1  0  0  0  0
 13 30  1  0  0  0  0
 13 31  1  0  0  0  0
 13 32  1  0  0  0  0
 18 33  1  0  0  0  0
 18 34  1  0  0  0  0
 18 35  1  0  0  0  0
 20 36  1  0  0  0  0
 20 37  1  0  0  0  0
 20 38  1  0  0  0  0
M  END
