 xtb: 6.7.1 (edcfbbe)
          04092505213D

 41 40  0     0  0            999 V2000
    1.7349   -1.0170   -3.0324 C   0  0  0  0  0  0  0  0  0  0  0  0
    2.0916   -2.0002   -1.9371 C   0  0  0  0  0  0  0  0  0  0  0  0
    2.9477   -1.4263   -0.9335 O   0  0  0  0  0  0  0  0  0  0  0  0
    2.6023   -0.1773   -0.0135 P   0  0  0  0  0  0  0  0  0  0  0  0
    2.7169    1.6268   -0.7627 S   0  0  0  0  0  0  0  0  0  0  0  0
    3.6891   -0.3166    1.1184 O   0  0  0  0  0  0  0  0  0  0  0  0
    3.9132   -1.5195    1.8989 C   0  0  0  0  0  0  0  0  0  0  0  0
    3.3477   -1.3554    3.2961 C   0  0  0  0  0  0  0  0  0  0  0  0
    0.7303   -0.7323    0.8468 S   0  0  0  0  0  0  0  0  0  0  0  0
    0.2820    0.9283    1.4441 C   0  0  0  0  0  0  0  0  0  0  0  0
   -1.4818    1.0638    1.7783 S   0  0  0  0  0  0  0  0  0  0  0  0
   -2.1560    0.7023   -0.1955 P   0  0  0  0  0  0  0  0  0  0  0  0
   -1.0661    1.3648   -1.6788 S   0  0  0  0  0  0  0  0  0  0  0  0
   -3.5989    1.3541   -0.2264 O   0  0  0  0  0  0  0  0  0  0  0  0
   -4.5347    1.3924    0.8766 C   0  0  0  0  0  0  0  0  0  0  0  0
   -4.9769    0.0117    1.3132 C   0  0  0  0  0  0  0  0  0  0  0  0
   -2.3378   -0.8839   -0.1570 O   0  0  0  0  0  0  0  0  0  0  0  0
   -2.1325   -1.7198   -1.3070 C   0  0  0  0  0  0  0  0  0  0  0  0
   -3.3299   -1.6693   -2.2343 C   0  0  0  0  0  0  0  0  0  0  0  0
    1.1268   -0.2025   -2.6385 H   0  0  0  0  0  0  0  0  0  0  0  0
    2.6362   -0.5864   -3.4618 H   0  0  0  0  0  0  0  0  0  0  0  0
    1.1756   -1.5271   -3.8102 H   0  0  0  0  0  0  0  0  0  0  0  0
    2.6808   -2.8319   -2.3280 H   0  0  0  0  0  0  0  0  0  0  0  0
    1.1917   -2.3812   -1.4455 H   0  0  0  0  0  0  0  0  0  0  0  0
    3.4655   -2.3712    1.3835 H   0  0  0  0  0  0  0  0  0  0  0  0
    4.9981   -1.6322    1.9211 H   0  0  0  0  0  0  0  0  0  0  0  0
    3.6384   -2.2111    3.8972 H   0  0  0  0  0  0  0  0  0  0  0  0
    3.7400   -0.4499    3.7512 H   0  0  0  0  0  0  0  0  0  0  0  0
    2.2623   -1.2975    3.2677 H   0  0  0  0  0  0  0  0  0  0  0  0
    0.5735    1.6522    0.6771 H   0  0  0  0  0  0  0  0  0  0  0  0
    0.7890    1.1306    2.3852 H   0  0  0  0  0  0  0  0  0  0  0  0
   -4.0668    1.9314    1.7047 H   0  0  0  0  0  0  0  0  0  0  0  0
   -5.3660    1.9763    0.4781 H   0  0  0  0  0  0  0  0  0  0  0  0
   -5.7234    0.1116    2.0951 H   0  0  0  0  0  0  0  0  0  0  0  0
   -5.4076   -0.5290    0.4746 H   0  0  0  0  0  0  0  0  0  0  0  0
   -4.1295   -0.5495    1.7007 H   0  0  0  0  0  0  0  0  0  0  0  0
   -1.2308   -1.3853   -1.8300 H   0  0  0  0  0  0  0  0  0  0  0  0
   -1.9766   -2.7160   -0.8913 H   0  0  0  0  0  0  0  0  0  0  0  0
   -4.2268   -1.9922   -1.7130 H   0  0  0  0  0  0  0  0  0  0  0  0
   -3.4734   -0.6477   -2.5863 H   0  0  0  0  0  0  0  0  0  0  0  0
   -3.1560   -2.3170   -3.0876 H   0  0  0  0  0  0  0  0  0  0  0  0
  1  2  1  0  0  0  0
  2  3  1  0  0  0  0
  3  4  2  0  0  0  0
  4  5  2  0  0  0  0
  4  6  2  0  0  0  0
  6  7  1  0  0  0  0
  7  8  1  0  0  0  0
  4  9  1  0  0  0  0
  9 10  1  0  0  0  0
 10 11  1  0  0  0  0
 11 12  1  0  0  0  0
 12 13  2  0  0  0  0
 12 14  2  0  0  0  0
 14 15  1  0  0  0  0
 15 16  1  0  0  0  0
 12 17  1  0  0  0  0
 17 18  1  0  0  0  0
 18 19  1  0  0  0  0
  1 20  1  0  0  0  0
  1 21  1  0  0  0  0
  1 22  1  0  0  0  0
  2 23  1  0  0  0  0
  2 24  1  0  0  0  0
  7 25  1  0  0  0  0
  7 26  1  0  0  0  0
  8 27  1  0  0  0  0
  8 28  1  0  0  0  0
  8 29  1  0  0  0  0
 10 30  1  0  0  0  0
 10 31  1  0  0  0  0
 15 32  1  0  0  0  0
 15 33  1  0  0  0  0
 16 34  1  0  0  0  0
 16 35  1  0  0  0  0
 16 36  1  0  0  0  0
 18 37  1  0  0  0  0
 18 38  1  0  0  0  0
 19 39  1  0  0  0  0
 19 40  1  0  0  0  0
 19 41  1  0  0  0  0
M  END
