 xtb: 6.7.1 (edcfbbe)
          04092505203D

 41 40  0     0  0            999 V2000
    5.8418   -0.4814   -0.5196 C   0  0  0  0  0  0  0  0  0  0  0  0
    4.3976   -0.7956   -0.8523 C   0  0  0  0  0  0  0  0  0  0  0  0
    3.5692    0.1938   -0.2084 O   0  0  0  0  0  0  0  0  0  0  0  0
    2.0470    0.3989   -0.6324 P   0  0  0  0  0  0  0  0  0  0  0  0
    1.7653    0.6523   -2.5491 S   0  0  0  0  0  0  0  0  0  0  0  0
    1.6570    1.6271    0.2678 O   0  0  0  0  0  0  0  0  0  0  0  0
    1.9321    1.6580    1.6937 C   0  0  0  0  0  0  0  0  0  0  0  0
    1.0208    2.6921    2.3191 C   0  0  0  0  0  0  0  0  0  0  0  0
    1.1563   -1.3427    0.2085 S   0  0  0  0  0  0  0  0  0  0  0  0
   -0.1031   -1.7375   -1.0491 C   0  0  0  0  0  0  0  0  0  0  0  0
   -1.7424   -1.9465   -0.3332 S   0  0  0  0  0  0  0  0  0  0  0  0
   -2.0200    0.0653    0.3078 P   0  0  0  0  0  0  0  0  0  0  0  0
   -1.3464    1.4531   -0.9071 S   0  0  0  0  0  0  0  0  0  0  0  0
   -1.3231    0.2349    1.7103 O   0  0  0  0  0  0  0  0  0  0  0  0
   -1.2649   -0.7343    2.7905 C   0  0  0  0  0  0  0  0  0  0  0  0
   -2.6154   -1.2960    3.1768 C   0  0  0  0  0  0  0  0  0  0  0  0
   -3.5597    0.1325    0.6806 O   0  0  0  0  0  0  0  0  0  0  0  0
   -4.6419   -0.3389   -0.1423 C   0  0  0  0  0  0  0  0  0  0  0  0
   -4.6347    0.2670   -1.5300 C   0  0  0  0  0  0  0  0  0  0  0  0
    6.4827   -1.2205   -0.9887 H   0  0  0  0  0  0  0  0  0  0  0  0
    6.1028    0.5062   -0.8895 H   0  0  0  0  0  0  0  0  0  0  0  0
    5.9895   -0.5061    0.5561 H   0  0  0  0  0  0  0  0  0  0  0  0
    4.1055   -1.7799   -0.4760 H   0  0  0  0  0  0  0  0  0  0  0  0
    4.2130   -0.7532   -1.9308 H   0  0  0  0  0  0  0  0  0  0  0  0
    1.7495    0.6597    2.1040 H   0  0  0  0  0  0  0  0  0  0  0  0
    2.9853    1.9152    1.8198 H   0  0  0  0  0  0  0  0  0  0  0  0
    1.1998    3.6648    1.8697 H   0  0  0  0  0  0  0  0  0  0  0  0
   -0.0191    2.4217    2.1508 H   0  0  0  0  0  0  0  0  0  0  0  0
    1.2160    2.7428    3.3854 H   0  0  0  0  0  0  0  0  0  0  0  0
    0.1558   -2.6888   -1.5068 H   0  0  0  0  0  0  0  0  0  0  0  0
   -0.1110   -0.9310   -1.7882 H   0  0  0  0  0  0  0  0  0  0  0  0
   -0.5811   -1.5322    2.4854 H   0  0  0  0  0  0  0  0  0  0  0  0
   -0.8221   -0.1624    3.6076 H   0  0  0  0  0  0  0  0  0  0  0  0
   -3.3149   -0.4901    3.3821 H   0  0  0  0  0  0  0  0  0  0  0  0
   -3.0139   -1.9185    2.3786 H   0  0  0  0  0  0  0  0  0  0  0  0
   -2.4961   -1.9036    4.0687 H   0  0  0  0  0  0  0  0  0  0  0  0
   -4.5782   -1.4292   -0.1977 H   0  0  0  0  0  0  0  0  0  0  0  0
   -5.5336   -0.0458    0.4145 H   0  0  0  0  0  0  0  0  0  0  0  0
   -5.5137   -0.0634   -2.0740 H   0  0  0  0  0  0  0  0  0  0  0  0
   -4.6337    1.3530   -1.4706 H   0  0  0  0  0  0  0  0  0  0  0  0
   -3.7433   -0.0441   -2.0735 H   0  0  0  0  0  0  0  0  0  0  0  0
  1  2  1  0  0  0  0
  2  3  1  0  0  0  0
  3  4  2  0  0  0  0
  4  5  2  0  0  0  0
  4  6  2  0  0  0  0
  6  7  1  0  0  0  0
  7  8  1  0  0  0  0
  4  9  1  0  0  0  0
  9 10  1  0  0  0  0
 10 11  1  0  0  0  0
 11 12  1  0  0  0  0
 12 13  2  0  0  0  0
 12 14  2  0  0  0  0
 14 15  1  0  0  0  0
 15 16  1  0  0  0  0
 12 17  2  0  0  0  0
 17 18  1  0  0  0  0
 18 19  1  0  0  0  0
  1 20  1  0  0  0  0
  1 21  1  0  0  0  0
  1 22  1  0  0  0  0
  2 23  1  0  0  0  0
  2 24  1  0  0  0  0
  7 25  1  0  0  0  0
  7 26  1  0  0  0  0
  8 27  1  0  0  0  0
  8 28  1  0  0  0  0
  8 29  1  0  0  0  0
 10 30  1  0  0  0  0
 10 31  1  0  0  0  0
 15 32  1  0  0  0  0
 15 33  1  0  0  0  0
 16 34  1  0  0  0  0
 16 35  1  0  0  0  0
 16 36  1  0  0  0  0
 18 37  1  0  0  0  0
 18 38  1  0  0  0  0
 19 39  1  0  0  0  0
 19 40  1  0  0  0  0
 19 41  1  0  0  0  0
M  END
