 xtb: 6.7.1 (edcfbbe)
          04092505203D

 41 40  0     0  0            999 V2000
    4.8855    1.3235    0.0141 C   0  0  0  0  0  0  0  0  0  0  0  0
    3.5922    1.4910   -0.7549 C   0  0  0  0  0  0  0  0  0  0  0  0
    2.8650    0.2479   -0.8498 O   0  0  0  0  0  0  0  0  0  0  0  0
    2.1666   -0.4059    0.4112 P   0  0  0  0  0  0  0  0  0  0  0  0
    1.5410    0.8372    1.7997 S   0  0  0  0  0  0  0  0  0  0  0  0
    3.2716   -1.4247    0.9299 O   0  0  0  0  0  0  0  0  0  0  0  0
    3.1838   -2.0508    2.2203 C   0  0  0  0  0  0  0  0  0  0  0  0
    2.0205   -3.0184    2.2957 C   0  0  0  0  0  0  0  0  0  0  0  0
    0.7750   -1.6607   -0.5851 S   0  0  0  0  0  0  0  0  0  0  0  0
    0.1469   -0.4872   -1.8223 C   0  0  0  0  0  0  0  0  0  0  0  0
   -0.5251    1.0315   -1.1154 S   0  0  0  0  0  0  0  0  0  0  0  0
   -2.5443    0.4020   -0.7746 P   0  0  0  0  0  0  0  0  0  0  0  0
   -3.0901   -1.1358   -1.8559 S   0  0  0  0  0  0  0  0  0  0  0  0
   -3.4476    1.6430   -1.1189 O   0  0  0  0  0  0  0  0  0  0  0  0
   -3.6075    2.8342   -0.3100 C   0  0  0  0  0  0  0  0  0  0  0  0
   -2.3114    3.5955   -0.1296 C   0  0  0  0  0  0  0  0  0  0  0  0
   -2.7343    0.3227    0.8042 O   0  0  0  0  0  0  0  0  0  0  0  0
   -2.0064   -0.5085    1.7201 C   0  0  0  0  0  0  0  0  0  0  0  0
   -2.2729   -1.9852    1.5123 C   0  0  0  0  0  0  0  0  0  0  0  0
    5.4765    0.5191   -0.4157 H   0  0  0  0  0  0  0  0  0  0  0  0
    5.4502    2.2498   -0.0245 H   0  0  0  0  0  0  0  0  0  0  0  0
    4.6690    1.0839    1.0544 H   0  0  0  0  0  0  0  0  0  0  0  0
    3.7708    1.7710   -1.7938 H   0  0  0  0  0  0  0  0  0  0  0  0
    2.9468    2.2343   -0.2756 H   0  0  0  0  0  0  0  0  0  0  0  0
    4.1425   -2.5580    2.3347 H   0  0  0  0  0  0  0  0  0  0  0  0
    3.0818   -1.2676    2.9790 H   0  0  0  0  0  0  0  0  0  0  0  0
    2.0831   -3.7503    1.4945 H   0  0  0  0  0  0  0  0  0  0  0  0
    2.0325   -3.5274    3.2540 H   0  0  0  0  0  0  0  0  0  0  0  0
    1.0820   -2.4728    2.1944 H   0  0  0  0  0  0  0  0  0  0  0  0
   -0.6476   -1.0137   -2.3573 H   0  0  0  0  0  0  0  0  0  0  0  0
    0.9558   -0.2021   -2.4891 H   0  0  0  0  0  0  0  0  0  0  0  0
   -4.3392    3.4165   -0.8721 H   0  0  0  0  0  0  0  0  0  0  0  0
   -4.0262    2.5389    0.6537 H   0  0  0  0  0  0  0  0  0  0  0  0
   -1.8647    3.8201   -1.0950 H   0  0  0  0  0  0  0  0  0  0  0  0
   -2.5154    4.5240    0.3947 H   0  0  0  0  0  0  0  0  0  0  0  0
   -1.6019    3.0127    0.4567 H   0  0  0  0  0  0  0  0  0  0  0  0
   -0.9391   -0.2808    1.6322 H   0  0  0  0  0  0  0  0  0  0  0  0
   -2.3577   -0.1767    2.6993 H   0  0  0  0  0  0  0  0  0  0  0  0
   -1.8557   -2.3242    0.5657 H   0  0  0  0  0  0  0  0  0  0  0  0
   -1.8144   -2.5474    2.3197 H   0  0  0  0  0  0  0  0  0  0  0  0
   -3.3436   -2.1739    1.5062 H   0  0  0  0  0  0  0  0  0  0  0  0
  1  2  1  0  0  0  0
  2  3  1  0  0  0  0
  3  4  2  0  0  0  0
  4  5  2  0  0  0  0
  4  6  2  0  0  0  0
  6  7  1  0  0  0  0
  7  8  1  0  0  0  0
  4  9  1  0  0  0  0
  9 10  1  0  0  0  0
 10 11  1  0  0  0  0
 11 12  1  0  0  0  0
 12 13  2  0  0  0  0
 12 14  2  0  0  0  0
 14 15  1  0  0  0  0
 15 16  1  0  0  0  0
 12 17  2  0  0  0  0
 17 18  1  0  0  0  0
 18 19  1  0  0  0  0
  1 20  1  0  0  0  0
  1 21  1  0  0  0  0
  1 22  1  0  0  0  0
  2 23  1  0  0  0  0
  2 24  1  0  0  0  0
  7 25  1  0  0  0  0
  7 26  1  0  0  0  0
  8 27  1  0  0  0  0
  8 28  1  0  0  0  0
  8 29  1  0  0  0  0
 10 30  1  0  0  0  0
 10 31  1  0  0  0  0
 15 32  1  0  0  0  0
 15 33  1  0  0  0  0
 16 34  1  0  0  0  0
 16 35  1  0  0  0  0
 16 36  1  0  0  0  0
 18 37  1  0  0  0  0
 18 38  1  0  0  0  0
 19 39  1  0  0  0  0
 19 40  1  0  0  0  0
 19 41  1  0  0  0  0
M  END
