 xtb: 6.7.1 (edcfbbe)
          04032519403D

 11 10  0     0  0            999 V2000
   -1.4341   -0.9939   -0.0001 C   0  0  0  0  0  0  0  0  0  0  0  0
   -0.0000    0.0908   -0.0000 S   0  0  0  0  0  0  0  0  0  0  0  0
   -0.0012    0.8787    1.2259 O   0  0  0  0  0  0  0  0  0  0  0  0
   -0.0005    0.8780   -1.2263 O   0  0  0  0  0  0  0  0  0  0  0  0
    1.4359   -0.9916    0.0005 C   0  0  0  0  0  0  0  0  0  0  0  0
   -1.3890   -1.5977   -0.8956 H   0  0  0  0  0  0  0  0  0  0  0  0
   -1.3919   -1.5935    0.8983 H   0  0  0  0  0  0  0  0  0  0  0  0
   -2.3181   -0.3696   -0.0028 H   0  0  0  0  0  0  0  0  0  0  0  0
    1.3916   -1.5959   -0.8948 H   0  0  0  0  0  0  0  0  0  0  0  0
    2.3190   -0.3659   -0.0027 H   0  0  0  0  0  0  0  0  0  0  0  0
    1.3948   -1.5910    0.8993 H   0  0  0  0  0  0  0  0  0  0  0  0
  1  2  1  0  0  0  0
  2  3  2  0  0  0  0
  2  4  2  0  0  0  0
  2  5  1  0  0  0  0
  1  6  1  0  0  0  0
  1  7  1  0  0  0  0
  1  8  1  0  0  0  0
  5  9  1  0  0  0  0
  5 10  1  0  0  0  0
  5 11  1  0  0  0  0
M  END
