 xtb: 6.7.1 (edcfbbe)
          04092505203D

 41 40  0     0  0            999 V2000
    2.5034    2.0105   -1.6766 C   0  0  0  0  0  0  0  0  0  0  0  0
    3.3030    1.9701   -0.3895 C   0  0  0  0  0  0  0  0  0  0  0  0
    3.3637    0.6456    0.1666 O   0  0  0  0  0  0  0  0  0  0  0  0
    2.1275   -0.0099    0.9229 P   0  0  0  0  0  0  0  0  0  0  0  0
    1.1650    1.2006    2.1148 S   0  0  0  0  0  0  0  0  0  0  0  0
    2.7657   -1.2143    1.7159 O   0  0  0  0  0  0  0  0  0  0  0  0
    3.6614   -2.1926    1.1294 C   0  0  0  0  0  0  0  0  0  0  0  0
    5.1074   -1.7891    1.3316 C   0  0  0  0  0  0  0  0  0  0  0  0
    1.0689   -0.9523   -0.6818 S   0  0  0  0  0  0  0  0  0  0  0  0
   -0.1379   -1.8813    0.2990 C   0  0  0  0  0  0  0  0  0  0  0  0
   -1.4813   -0.8697    0.9840 S   0  0  0  0  0  0  0  0  0  0  0  0
   -2.1020    0.0106   -0.8613 P   0  0  0  0  0  0  0  0  0  0  0  0
   -1.9360   -1.1011   -2.4578 S   0  0  0  0  0  0  0  0  0  0  0  0
   -1.2794    1.3553   -0.9666 O   0  0  0  0  0  0  0  0  0  0  0  0
   -1.4226    2.4426   -0.0185 C   0  0  0  0  0  0  0  0  0  0  0  0
   -2.3343    3.5155   -0.5742 C   0  0  0  0  0  0  0  0  0  0  0  0
   -3.5678    0.5331   -0.5368 O   0  0  0  0  0  0  0  0  0  0  0  0
   -4.7378   -0.2831   -0.7296 C   0  0  0  0  0  0  0  0  0  0  0  0
   -4.7773   -1.4711    0.2092 C   0  0  0  0  0  0  0  0  0  0  0  0
    1.4543    1.7876   -1.4849 H   0  0  0  0  0  0  0  0  0  0  0  0
    2.5764    3.0013   -2.1135 H   0  0  0  0  0  0  0  0  0  0  0  0
    2.8858    1.2771   -2.3821 H   0  0  0  0  0  0  0  0  0  0  0  0
    2.8718    2.6409    0.3611 H   0  0  0  0  0  0  0  0  0  0  0  0
    4.3477    2.2325   -0.5629 H   0  0  0  0  0  0  0  0  0  0  0  0
    3.4325   -3.1199    1.6581 H   0  0  0  0  0  0  0  0  0  0  0  0
    3.4246   -2.3000    0.0673 H   0  0  0  0  0  0  0  0  0  0  0  0
    5.3219   -0.8697    0.7941 H   0  0  0  0  0  0  0  0  0  0  0  0
    5.3055   -1.6324    2.3884 H   0  0  0  0  0  0  0  0  0  0  0  0
    5.7507   -2.5803    0.9594 H   0  0  0  0  0  0  0  0  0  0  0  0
    0.3505   -2.3560    1.1474 H   0  0  0  0  0  0  0  0  0  0  0  0
   -0.5592   -2.6190   -0.3828 H   0  0  0  0  0  0  0  0  0  0  0  0
   -1.7968    2.0458    0.9291 H   0  0  0  0  0  0  0  0  0  0  0  0
   -0.4090    2.8190    0.1354 H   0  0  0  0  0  0  0  0  0  0  0  0
   -2.3577    4.3498    0.1197 H   0  0  0  0  0  0  0  0  0  0  0  0
   -1.9620    3.8563   -1.5363 H   0  0  0  0  0  0  0  0  0  0  0  0
   -3.3404    3.1259   -0.7032 H   0  0  0  0  0  0  0  0  0  0  0  0
   -5.5655    0.4030   -0.5442 H   0  0  0  0  0  0  0  0  0  0  0  0
   -4.7547   -0.6164   -1.7717 H   0  0  0  0  0  0  0  0  0  0  0  0
   -5.7369   -1.9690    0.1147 H   0  0  0  0  0  0  0  0  0  0  0  0
   -3.9879   -2.1756   -0.0482 H   0  0  0  0  0  0  0  0  0  0  0  0
   -4.6374   -1.1474    1.2378 H   0  0  0  0  0  0  0  0  0  0  0  0
  1  2  1  0  0  0  0
  2  3  1  0  0  0  0
  3  4  2  0  0  0  0
  4  5  2  0  0  0  0
  4  6  2  0  0  0  0
  6  7  1  0  0  0  0
  7  8  1  0  0  0  0
  4  9  1  0  0  0  0
  9 10  1  0  0  0  0
 10 11  1  0  0  0  0
 11 12  1  0  0  0  0
 12 13  2  0  0  0  0
 12 14  2  0  0  0  0
 14 15  1  0  0  0  0
 15 16  1  0  0  0  0
 12 17  2  0  0  0  0
 17 18  1  0  0  0  0
 18 19  1  0  0  0  0
  1 20  1  0  0  0  0
  1 21  1  0  0  0  0
  1 22  1  0  0  0  0
  2 23  1  0  0  0  0
  2 24  1  0  0  0  0
  7 25  1  0  0  0  0
  7 26  1  0  0  0  0
  8 27  1  0  0  0  0
  8 28  1  0  0  0  0
  8 29  1  0  0  0  0
 10 30  1  0  0  0  0
 10 31  1  0  0  0  0
 15 32  1  0  0  0  0
 15 33  1  0  0  0  0
 16 34  1  0  0  0  0
 16 35  1  0  0  0  0
 16 36  1  0  0  0  0
 18 37  1  0  0  0  0
 18 38  1  0  0  0  0
 19 39  1  0  0  0  0
 19 40  1  0  0  0  0
 19 41  1  0  0  0  0
M  END
