 xtb: 6.7.1 (edcfbbe)
          04032520463D

  5  4  0     0  0            999 V2000
   -1.9187    0.0000   -0.0000 C   0  0  0  0  0  0  0  0  0  0  0  0
    0.2352    0.0000    0.0000 I   0  0  0  0  0  0  0  0  0  0  0  0
   -2.2507   -1.0017   -0.2393 H   0  0  0  0  0  0  0  0  0  0  0  0
   -2.2508    0.2936    0.9871 H   0  0  0  0  0  0  0  0  0  0  0  0
   -2.2508    0.7081   -0.7478 H   0  0  0  0  0  0  0  0  0  0  0  0
  1  2  1  0  0  0  0
  1  3  1  0  0  0  0
  1  4  1  0  0  0  0
  1  5  1  0  0  0  0
M  END
