 xtb: 6.7.1 (edcfbbe)
          04032520123D

 18 19  0     0  0            999 V2000
   -2.4146   -0.7022   -0.0003 C   0  0  0  0  0  0  0  0  0  0  0  0
   -2.4146    0.7021    0.0001 C   0  0  0  0  0  0  0  0  0  0  0  0
   -1.2349    1.3923    0.0003 C   0  0  0  0  0  0  0  0  0  0  0  0
    0.0000    0.7099    0.0001 C   0  0  0  0  0  0  0  0  0  0  0  0
    1.2349    1.3924   -0.0002 C   0  0  0  0  0  0  0  0  0  0  0  0
    2.4145    0.7022   -0.0003 C   0  0  0  0  0  0  0  0  0  0  0  0
    2.4146   -0.7022    0.0001 C   0  0  0  0  0  0  0  0  0  0  0  0
    1.2349   -1.3923    0.0003 C   0  0  0  0  0  0  0  0  0  0  0  0
    0.0000   -0.7099    0.0001 C   0  0  0  0  0  0  0  0  0  0  0  0
   -1.2349   -1.3923   -0.0002 C   0  0  0  0  0  0  0  0  0  0  0  0
   -3.3559   -1.2313   -0.0008 H   0  0  0  0  0  0  0  0  0  0  0  0
   -3.3560    1.2311    0.0004 H   0  0  0  0  0  0  0  0  0  0  0  0
   -1.2295    2.4728    0.0007 H   0  0  0  0  0  0  0  0  0  0  0  0
    1.2295    2.4728   -0.0006 H   0  0  0  0  0  0  0  0  0  0  0  0
    3.3559    1.2312   -0.0006 H   0  0  0  0  0  0  0  0  0  0  0  0
    3.3560   -1.2311    0.0001 H   0  0  0  0  0  0  0  0  0  0  0  0
    1.2294   -2.4729    0.0009 H   0  0  0  0  0  0  0  0  0  0  0  0
   -1.2294   -2.4728   -0.0004 H   0  0  0  0  0  0  0  0  0  0  0  0
  1  2  4  0  0  0  0
  2  3  2  0  0  0  0
  3  4  4  0  0  0  0
  4  5  4  0  0  0  0
  5  6  2  0  0  0  0
  6  7  4  0  0  0  0
  7  8  2  0  0  0  0
  4  9  4  0  0  0  0
  8  9  4  0  0  0  0
  1 10  2  0  0  0  0
  9 10  4  0  0  0  0
  1 11  1  0  0  0  0
  2 12  1  0  0  0  0
  3 13  1  0  0  0  0
  5 14  1  0  0  0  0
  6 15  1  0  0  0  0
  7 16  1  0  0  0  0
  8 17  1  0  0  0  0
 10 18  1  0  0  0  0
M  END
