 xtb: 6.7.1 (edcfbbe)
          04092505213D

 41 40  0     0  0            999 V2000
    3.4624   -0.2877   -2.8563 C   0  0  0  0  0  0  0  0  0  0  0  0
    4.0723    0.5719   -1.7663 C   0  0  0  0  0  0  0  0  0  0  0  0
    3.8538    0.0220   -0.4568 O   0  0  0  0  0  0  0  0  0  0  0  0
    2.4109   -0.0729    0.1812 P   0  0  0  0  0  0  0  0  0  0  0  0
    1.2242    1.4480   -0.2270 S   0  0  0  0  0  0  0  0  0  0  0  0
    2.9215   -0.2290    1.6713 O   0  0  0  0  0  0  0  0  0  0  0  0
    2.0386   -0.5075    2.7754 C   0  0  0  0  0  0  0  0  0  0  0  0
    1.5375    0.7782    3.4056 C   0  0  0  0  0  0  0  0  0  0  0  0
    1.6979   -2.0157   -0.3111 S   0  0  0  0  0  0  0  0  0  0  0  0
   -0.0100   -1.6727   -0.8048 C   0  0  0  0  0  0  0  0  0  0  0  0
   -1.0578   -1.1284    0.5809 S   0  0  0  0  0  0  0  0  0  0  0  0
   -2.0937    0.4967   -0.3413 P   0  0  0  0  0  0  0  0  0  0  0  0
   -1.6571    0.8414   -2.2199 S   0  0  0  0  0  0  0  0  0  0  0  0
   -1.8870    1.7430    0.6009 O   0  0  0  0  0  0  0  0  0  0  0  0
   -2.6164    1.9945    1.8282 C   0  0  0  0  0  0  0  0  0  0  0  0
   -2.4666    0.8779    2.8394 C   0  0  0  0  0  0  0  0  0  0  0  0
   -3.6369    0.1745   -0.0937 O   0  0  0  0  0  0  0  0  0  0  0  0
   -4.4283   -0.5962   -1.0122 C   0  0  0  0  0  0  0  0  0  0  0  0
   -3.9515   -2.0298   -1.1285 C   0  0  0  0  0  0  0  0  0  0  0  0
    3.7727    0.0866   -3.8267 H   0  0  0  0  0  0  0  0  0  0  0  0
    3.7831   -1.3207   -2.7465 H   0  0  0  0  0  0  0  0  0  0  0  0
    2.3746   -0.2450   -2.7994 H   0  0  0  0  0  0  0  0  0  0  0  0
    3.6534    1.5833   -1.7959 H   0  0  0  0  0  0  0  0  0  0  0  0
    5.1587    0.6191   -1.8516 H   0  0  0  0  0  0  0  0  0  0  0  0
    1.2038   -1.1295    2.4329 H   0  0  0  0  0  0  0  0  0  0  0  0
    2.6521   -1.0785    3.4749 H   0  0  0  0  0  0  0  0  0  0  0  0
    0.9527    1.3467    2.6845 H   0  0  0  0  0  0  0  0  0  0  0  0
    0.9204    0.5409    4.2665 H   0  0  0  0  0  0  0  0  0  0  0  0
    2.3780    1.3897    3.7222 H   0  0  0  0  0  0  0  0  0  0  0  0
   -0.3875   -2.6195   -1.1833 H   0  0  0  0  0  0  0  0  0  0  0  0
   -0.0407   -0.8969   -1.5751 H   0  0  0  0  0  0  0  0  0  0  0  0
   -2.1772    2.9268    2.1872 H   0  0  0  0  0  0  0  0  0  0  0  0
   -3.6660    2.1516    1.5715 H   0  0  0  0  0  0  0  0  0  0  0  0
   -1.4170    0.6995    3.0565 H   0  0  0  0  0  0  0  0  0  0  0  0
   -2.9790    1.1592    3.7541 H   0  0  0  0  0  0  0  0  0  0  0  0
   -2.9049   -0.0409    2.4538 H   0  0  0  0  0  0  0  0  0  0  0  0
   -5.4352   -0.5386   -0.5961 H   0  0  0  0  0  0  0  0  0  0  0  0
   -4.3992   -0.1040   -1.9892 H   0  0  0  0  0  0  0  0  0  0  0  0
   -3.8613   -2.4831   -0.1446 H   0  0  0  0  0  0  0  0  0  0  0  0
   -4.6624   -2.5948   -1.7226 H   0  0  0  0  0  0  0  0  0  0  0  0
   -2.9822   -2.0550   -1.6247 H   0  0  0  0  0  0  0  0  0  0  0  0
  1  2  1  0  0  0  0
  2  3  1  0  0  0  0
  3  4  2  0  0  0  0
  4  5  2  0  0  0  0
  4  6  2  0  0  0  0
  6  7  1  0  0  0  0
  7  8  1  0  0  0  0
  4  9  1  0  0  0  0
  9 10  1  0  0  0  0
 10 11  1  0  0  0  0
 11 12  1  0  0  0  0
 12 13  2  0  0  0  0
 12 14  2  0  0  0  0
 14 15  1  0  0  0  0
 15 16  1  0  0  0  0
 12 17  2  0  0  0  0
 17 18  1  0  0  0  0
 18 19  1  0  0  0  0
  1 20  1  0  0  0  0
  1 21  1  0  0  0  0
  1 22  1  0  0  0  0
  2 23  1  0  0  0  0
  2 24  1  0  0  0  0
  7 25  1  0  0  0  0
  7 26  1  0  0  0  0
  8 27  1  0  0  0  0
  8 28  1  0  0  0  0
  8 29  1  0  0  0  0
 10 30  1  0  0  0  0
 10 31  1  0  0  0  0
 15 32  1  0  0  0  0
 15 33  1  0  0  0  0
 16 34  1  0  0  0  0
 16 35  1  0  0  0  0
 16 36  1  0  0  0  0
 18 37  1  0  0  0  0
 18 38  1  0  0  0  0
 19 39  1  0  0  0  0
 19 40  1  0  0  0  0
 19 41  1  0  0  0  0
M  END
