 xtb: 6.7.1 (edcfbbe)
          04092505213D

 41 40  0     0  0            999 V2000
    2.9989   -2.9935   -1.3046 C   0  0  0  0  0  0  0  0  0  0  0  0
    4.0983   -2.2129   -0.6167 C   0  0  0  0  0  0  0  0  0  0  0  0
    3.9027   -0.7800   -0.7067 O   0  0  0  0  0  0  0  0  0  0  0  0
    2.7042    0.0336   -0.0941 P   0  0  0  0  0  0  0  0  0  0  0  0
    3.1819    1.9305    0.0046 S   0  0  0  0  0  0  0  0  0  0  0  0
    2.4598   -0.7615    1.2642 O   0  0  0  0  0  0  0  0  0  0  0  0
    1.3515   -0.5815    2.1610 C   0  0  0  0  0  0  0  0  0  0  0  0
    1.4361    0.7208    2.9314 C   0  0  0  0  0  0  0  0  0  0  0  0
    0.9868   -0.3854   -1.3106 S   0  0  0  0  0  0  0  0  0  0  0  0
    0.2844    1.2740   -1.3850 C   0  0  0  0  0  0  0  0  0  0  0  0
   -0.7060    1.7014    0.0722 S   0  0  0  0  0  0  0  0  0  0  0  0
   -2.2852    0.3512   -0.3334 P   0  0  0  0  0  0  0  0  0  0  0  0
   -2.8343    0.1381   -2.1946 S   0  0  0  0  0  0  0  0  0  0  0  0
   -3.4686    0.8732    0.5790 O   0  0  0  0  0  0  0  0  0  0  0  0
   -3.3032    1.0893    2.0044 C   0  0  0  0  0  0  0  0  0  0  0  0
   -4.6847    1.2014    2.6147 C   0  0  0  0  0  0  0  0  0  0  0  0
   -1.7040   -0.9640    0.3754 O   0  0  0  0  0  0  0  0  0  0  0  0
   -2.0843   -2.2848   -0.0561 C   0  0  0  0  0  0  0  0  0  0  0  0
   -3.5108   -2.6028    0.3429 C   0  0  0  0  0  0  0  0  0  0  0  0
    3.2443   -4.0507   -1.2790 H   0  0  0  0  0  0  0  0  0  0  0  0
    2.0481   -2.8379   -0.7977 H   0  0  0  0  0  0  0  0  0  0  0  0
    2.8957   -2.6746   -2.3387 H   0  0  0  0  0  0  0  0  0  0  0  0
    5.0623   -2.3613   -1.1057 H   0  0  0  0  0  0  0  0  0  0  0  0
    4.1709   -2.4811    0.4387 H   0  0  0  0  0  0  0  0  0  0  0  0
    0.4196   -0.6378    1.5902 H   0  0  0  0  0  0  0  0  0  0  0  0
    1.4228   -1.4410    2.8307 H   0  0  0  0  0  0  0  0  0  0  0  0
    2.4003    0.8008    3.4267 H   0  0  0  0  0  0  0  0  0  0  0  0
    1.3193    1.5705    2.2614 H   0  0  0  0  0  0  0  0  0  0  0  0
    0.6462    0.7493    3.6751 H   0  0  0  0  0  0  0  0  0  0  0  0
   -0.3499    1.3095   -2.2705 H   0  0  0  0  0  0  0  0  0  0  0  0
    1.0917    2.0062   -1.4353 H   0  0  0  0  0  0  0  0  0  0  0  0
   -2.7436    0.2493    2.4233 H   0  0  0  0  0  0  0  0  0  0  0  0
   -2.7278    2.0086    2.1389 H   0  0  0  0  0  0  0  0  0  0  0  0
   -5.2289    2.0196    2.1520 H   0  0  0  0  0  0  0  0  0  0  0  0
   -5.2415    0.2816    2.4593 H   0  0  0  0  0  0  0  0  0  0  0  0
   -4.5894    1.3897    3.6791 H   0  0  0  0  0  0  0  0  0  0  0  0
   -1.9614   -2.3447   -1.1417 H   0  0  0  0  0  0  0  0  0  0  0  0
   -1.3667   -2.9438    0.4342 H   0  0  0  0  0  0  0  0  0  0  0  0
   -3.7580   -3.6113    0.0271 H   0  0  0  0  0  0  0  0  0  0  0  0
   -3.6321   -2.5228    1.4201 H   0  0  0  0  0  0  0  0  0  0  0  0
   -4.1905   -1.9035   -0.1441 H   0  0  0  0  0  0  0  0  0  0  0  0
  1  2  1  0  0  0  0
  2  3  1  0  0  0  0
  3  4  2  0  0  0  0
  4  5  2  0  0  0  0
  4  6  2  0  0  0  0
  6  7  1  0  0  0  0
  7  8  1  0  0  0  0
  4  9  1  0  0  0  0
  9 10  1  0  0  0  0
 10 11  1  0  0  0  0
 11 12  1  0  0  0  0
 12 13  2  0  0  0  0
 12 14  2  0  0  0  0
 14 15  1  0  0  0  0
 15 16  1  0  0  0  0
 12 17  1  0  0  0  0
 17 18  1  0  0  0  0
 18 19  1  0  0  0  0
  1 20  1  0  0  0  0
  1 21  1  0  0  0  0
  1 22  1  0  0  0  0
  2 23  1  0  0  0  0
  2 24  1  0  0  0  0
  7 25  1  0  0  0  0
  7 26  1  0  0  0  0
  8 27  1  0  0  0  0
  8 28  1  0  0  0  0
  8 29  1  0  0  0  0
 10 30  1  0  0  0  0
 10 31  1  0  0  0  0
 15 32  1  0  0  0  0
 15 33  1  0  0  0  0
 16 34  1  0  0  0  0
 16 35  1  0  0  0  0
 16 36  1  0  0  0  0
 18 37  1  0  0  0  0
 18 38  1  0  0  0  0
 19 39  1  0  0  0  0
 19 40  1  0  0  0  0
 19 41  1  0  0  0  0
M  END
