 xtb: 6.7.1 (edcfbbe)
          04032520223D

 12 12  0     0  0            999 V2000
    0.1892    1.5173   -0.0002 C   0  0  0  0  0  0  0  0  0  0  0  0
    1.0935    0.5167   -0.0001 C   0  0  0  0  0  0  0  0  0  0  0  0
    0.6952   -0.8813   -0.0001 C   0  0  0  0  0  0  0  0  0  0  0  0
    1.4379   -1.8460    0.0000 O   0  0  0  0  0  0  0  0  0  0  0  0
   -0.6806   -1.0305   -0.0001 N   0  0  0  0  0  0  0  0  0  0  0  0
   -1.6352   -0.0400    0.0002 C   0  0  0  0  0  0  0  0  0  0  0  0
   -2.8255   -0.2774    0.0001 O   0  0  0  0  0  0  0  0  0  0  0  0
   -1.1385    1.2391   -0.0000 N   0  0  0  0  0  0  0  0  0  0  0  0
    2.4182    0.7951    0.0002 F   0  0  0  0  0  0  0  0  0  0  0  0
    0.4910    2.5536   -0.0006 H   0  0  0  0  0  0  0  0  0  0  0  0
   -1.0300   -1.9856   -0.0002 H   0  0  0  0  0  0  0  0  0  0  0  0
   -1.8196    1.9914    0.0004 H   0  0  0  0  0  0  0  0  0  0  0  0
  1  2  2  0  0  0  0
  2  3  1  0  0  0  0
  3  4  2  0  0  0  0
  3  5  1  0  0  0  0
  5  6  1  0  0  0  0
  6  7  2  0  0  0  0
  1  8  4  0  0  0  0
  6  8  1  0  0  0  0
  2  9  1  0  0  0  0
  1 10  1  0  0  0  0
  5 11  1  0  0  0  0
  8 12  1  0  0  0  0
M  END
