 xtb: 6.7.1 (edcfbbe)
          04092505213D

 41 40  0     0  0            999 V2000
    2.0423    2.7354    0.0386 C   0  0  0  0  0  0  0  0  0  0  0  0
    2.9786    2.0837    1.0349 C   0  0  0  0  0  0  0  0  0  0  0  0
    3.2329    0.7064    0.7087 O   0  0  0  0  0  0  0  0  0  0  0  0
    2.0889   -0.3952    0.7266 P   0  0  0  0  0  0  0  0  0  0  0  0
    0.8095   -0.2519    2.2110 S   0  0  0  0  0  0  0  0  0  0  0  0
    2.9074   -1.7540    0.6918 O   0  0  0  0  0  0  0  0  0  0  0  0
    3.3461   -2.4223    1.8922 C   0  0  0  0  0  0  0  0  0  0  0  0
    4.4236   -1.6405    2.6135 C   0  0  0  0  0  0  0  0  0  0  0  0
    1.3720   -0.4298   -1.2521 S   0  0  0  0  0  0  0  0  0  0  0  0
    0.1158   -1.7294   -0.9994 C   0  0  0  0  0  0  0  0  0  0  0  0
   -1.4029   -1.4491   -1.9502 S   0  0  0  0  0  0  0  0  0  0  0  0
   -2.3188    0.0700   -0.8005 P   0  0  0  0  0  0  0  0  0  0  0  0
   -4.1446    0.5543   -1.3118 S   0  0  0  0  0  0  0  0  0  0  0  0
   -1.2945    1.2957   -0.7612 O   0  0  0  0  0  0  0  0  0  0  0  0
   -1.3801    2.3592   -1.7256 C   0  0  0  0  0  0  0  0  0  0  0  0
   -0.9227    1.9141   -3.1000 C   0  0  0  0  0  0  0  0  0  0  0  0
   -2.1344   -0.5681    0.6393 O   0  0  0  0  0  0  0  0  0  0  0  0
   -2.9695   -0.1855    1.7510 C   0  0  0  0  0  0  0  0  0  0  0  0
   -2.7028    1.2358    2.1966 C   0  0  0  0  0  0  0  0  0  0  0  0
    1.0611    2.2647    0.0994 H   0  0  0  0  0  0  0  0  0  0  0  0
    1.9449    3.7914    0.2705 H   0  0  0  0  0  0  0  0  0  0  0  0
    2.4254    2.6185   -0.9723 H   0  0  0  0  0  0  0  0  0  0  0  0
    2.5564    2.1285    2.0442 H   0  0  0  0  0  0  0  0  0  0  0  0
    3.9678    2.5434    1.0244 H   0  0  0  0  0  0  0  0  0  0  0  0
    2.4779   -2.5725    2.5426 H   0  0  0  0  0  0  0  0  0  0  0  0
    3.7138   -3.3850    1.5350 H   0  0  0  0  0  0  0  0  0  0  0  0
    4.0107   -0.7108    3.0024 H   0  0  0  0  0  0  0  0  0  0  0  0
    4.8034   -2.2309    3.4416 H   0  0  0  0  0  0  0  0  0  0  0  0
    5.2367   -1.4059    1.9317 H   0  0  0  0  0  0  0  0  0  0  0  0
   -0.1308   -1.7780    0.0613 H   0  0  0  0  0  0  0  0  0  0  0  0
    0.5111   -2.6745   -1.3627 H   0  0  0  0  0  0  0  0  0  0  0  0
   -2.4178    2.7073   -1.7608 H   0  0  0  0  0  0  0  0  0  0  0  0
   -0.7388    3.1431   -1.3208 H   0  0  0  0  0  0  0  0  0  0  0  0
    0.0747    1.4837   -3.0477 H   0  0  0  0  0  0  0  0  0  0  0  0
   -1.6081    1.1636   -3.4935 H   0  0  0  0  0  0  0  0  0  0  0  0
   -0.9145    2.7685   -3.7687 H   0  0  0  0  0  0  0  0  0  0  0  0
   -4.0152   -0.3109    1.4529 H   0  0  0  0  0  0  0  0  0  0  0  0
   -2.7103   -0.9049    2.5291 H   0  0  0  0  0  0  0  0  0  0  0  0
   -3.2911    1.4498    3.0831 H   0  0  0  0  0  0  0  0  0  0  0  0
   -1.6469    1.3593    2.4258 H   0  0  0  0  0  0  0  0  0  0  0  0
   -2.9826    1.9307    1.4061 H   0  0  0  0  0  0  0  0  0  0  0  0
  1  2  1  0  0  0  0
  2  3  1  0  0  0  0
  3  4  2  0  0  0  0
  4  5  2  0  0  0  0
  4  6  2  0  0  0  0
  6  7  1  0  0  0  0
  7  8  1  0  0  0  0
  4  9  1  0  0  0  0
  9 10  1  0  0  0  0
 10 11  1  0  0  0  0
 11 12  1  0  0  0  0
 12 13  2  0  0  0  0
 12 14  1  0  0  0  0
 14 15  1  0  0  0  0
 15 16  1  0  0  0  0
 12 17  2  0  0  0  0
 17 18  1  0  0  0  0
 18 19  1  0  0  0  0
  1 20  1  0  0  0  0
  1 21  1  0  0  0  0
  1 22  1  0  0  0  0
  2 23  1  0  0  0  0
  2 24  1  0  0  0  0
  7 25  1  0  0  0  0
  7 26  1  0  0  0  0
  8 27  1  0  0  0  0
  8 28  1  0  0  0  0
  8 29  1  0  0  0  0
 10 30  1  0  0  0  0
 10 31  1  0  0  0  0
 15 32  1  0  0  0  0
 15 33  1  0  0  0  0
 16 34  1  0  0  0  0
 16 35  1  0  0  0  0
 16 36  1  0  0  0  0
 18 37  1  0  0  0  0
 18 38  1  0  0  0  0
 19 39  1  0  0  0  0
 19 40  1  0  0  0  0
 19 41  1  0  0  0  0
M  END
