 xtb: 6.7.1 (edcfbbe)
          04092507313D

 38 37  0     0  0            999 V2000
    4.2133   -2.5108    0.8495 C   0  0  0  0  0  0  0  0  0  0  0  0
    2.7311   -2.2313    0.6965 C   0  0  0  0  0  0  0  0  0  0  0  0
    2.5647   -1.2410   -0.3366 O   0  0  0  0  0  0  0  0  0  0  0  0
    1.4188   -1.1650   -0.9641 C   0  0  0  0  0  0  0  0  0  0  0  0
    0.4595   -1.8848   -0.7436 O   0  0  0  0  0  0  0  0  0  0  0  0
    1.4027   -0.0757   -2.0126 C   0  0  0  0  0  0  0  0  0  0  0  0
    0.2833    0.9239   -1.7272 C   0  0  0  0  0  0  0  0  0  0  0  0
    0.2038    1.6305   -2.5600 H   0  0  0  0  0  0  0  0  0  0  0  0
    0.4711    1.7375   -0.4549 C   0  0  0  0  0  0  0  0  0  0  0  0
   -0.4682    2.2086    0.1513 O   0  0  0  0  0  0  0  0  0  0  0  0
    1.7311    1.8748   -0.1365 O   0  0  0  0  0  0  0  0  0  0  0  0
    2.0561    2.6253    1.0520 C   0  0  0  0  0  0  0  0  0  0  0  0
    2.0080    4.1214    0.7906 C   0  0  0  0  0  0  0  0  0  0  0  0
   -1.3780    0.1671   -1.6666 S   0  0  0  0  0  0  0  0  0  0  0  0
   -1.5806   -0.5001    0.3497 P   0  0  0  0  0  0  0  0  0  0  0  0
   -0.2523   -0.3285    1.7807 S   0  0  0  0  0  0  0  0  0  0  0  0
   -2.9924    0.1666    0.7451 O   0  0  0  0  0  0  0  0  0  0  0  0
   -3.1917    1.5355    1.0924 C   0  0  0  0  0  0  0  0  0  0  0  0
   -2.0698   -1.9997    0.2598 O   0  0  0  0  0  0  0  0  0  0  0  0
   -3.0149   -2.4703   -0.7165 C   0  0  0  0  0  0  0  0  0  0  0  0
    4.6185   -2.9040   -0.0783 H   0  0  0  0  0  0  0  0  0  0  0  0
    4.7376   -1.5953    1.1046 H   0  0  0  0  0  0  0  0  0  0  0  0
    4.3576   -3.2385    1.6408 H   0  0  0  0  0  0  0  0  0  0  0  0
    2.2936   -1.8277    1.6154 H   0  0  0  0  0  0  0  0  0  0  0  0
    2.1678   -3.1258    0.4124 H   0  0  0  0  0  0  0  0  0  0  0  0
    1.2127   -0.5399   -2.9815 H   0  0  0  0  0  0  0  0  0  0  0  0
    2.3645    0.4352   -2.0137 H   0  0  0  0  0  0  0  0  0  0  0  0
    1.3565    2.3352    1.8416 H   0  0  0  0  0  0  0  0  0  0  0  0
    3.0630    2.2933    1.3032 H   0  0  0  0  0  0  0  0  0  0  0  0
    2.6693    4.3792   -0.0320 H   0  0  0  0  0  0  0  0  0  0  0  0
    0.9939    4.4277    0.5448 H   0  0  0  0  0  0  0  0  0  0  0  0
    2.3260    4.6469    1.6847 H   0  0  0  0  0  0  0  0  0  0  0  0
   -3.0964    2.1644    0.2079 H   0  0  0  0  0  0  0  0  0  0  0  0
   -2.4576    1.8479    1.8355 H   0  0  0  0  0  0  0  0  0  0  0  0
   -4.1981    1.5861    1.5005 H   0  0  0  0  0  0  0  0  0  0  0  0
   -2.5594   -2.4475   -1.7062 H   0  0  0  0  0  0  0  0  0  0  0  0
   -3.9140   -1.8562   -0.6982 H   0  0  0  0  0  0  0  0  0  0  0  0
   -3.2374   -3.4923   -0.4211 H   0  0  0  0  0  0  0  0  0  0  0  0
  1  2  1  0  0  0  0
  2  3  1  0  0  0  0
  3  4  4  0  0  0  0
  4  5  2  0  0  0  0
  4  6  1  0  0  0  0
  6  7  1  0  0  0  0
  7  8  1  0  0  0  0
  7  9  1  0  0  0  0
  9 10  2  0  0  0  0
  9 11  4  0  0  0  0
 11 12  1  0  0  0  0
 12 13  1  0  0  0  0
  7 14  1  0  0  0  0
 14 15  1  0  0  0  0
 15 16  2  0  0  0  0
 15 17  1  0  0  0  0
 17 18  1  0  0  0  0
 15 19  2  0  0  0  0
 19 20  1  0  0  0  0
  1 21  1  0  0  0  0
  1 22  1  0  0  0  0
  1 23  1  0  0  0  0
  2 24  1  0  0  0  0
  2 25  1  0  0  0  0
  6 26  1  0  0  0  0
  6 27  1  0  0  0  0
 12 28  1  0  0  0  0
 12 29  1  0  0  0  0
 13 30  1  0  0  0  0
 13 31  1  0  0  0  0
 13 32  1  0  0  0  0
 18 33  1  0  0  0  0
 18 34  1  0  0  0  0
 18 35  1  0  0  0  0
 20 36  1  0  0  0  0
 20 37  1  0  0  0  0
 20 38  1  0  0  0  0
M  END
