 xtb: 6.7.1 (edcfbbe)
          04092505213D

 41 40  0     0  0            999 V2000
    5.7283   -1.1844   -0.1796 C   0  0  0  0  0  0  0  0  0  0  0  0
    4.5245   -1.4162    0.7131 C   0  0  0  0  0  0  0  0  0  0  0  0
    3.6938   -0.2378    0.7668 O   0  0  0  0  0  0  0  0  0  0  0  0
    2.4096   -0.0602   -0.1569 P   0  0  0  0  0  0  0  0  0  0  0  0
    2.6881   -0.3640   -2.0782 S   0  0  0  0  0  0  0  0  0  0  0  0
    1.9446    1.3884    0.2750 O   0  0  0  0  0  0  0  0  0  0  0  0
    2.3434    2.5806   -0.4409 C   0  0  0  0  0  0  0  0  0  0  0  0
    1.2361    3.0403   -1.3676 C   0  0  0  0  0  0  0  0  0  0  0  0
    0.9712   -1.2782    0.7837 S   0  0  0  0  0  0  0  0  0  0  0  0
   -0.1920   -1.3446   -0.6063 C   0  0  0  0  0  0  0  0  0  0  0  0
   -1.0242    0.2354   -0.9361 S   0  0  0  0  0  0  0  0  0  0  0  0
   -2.6501   -0.0168    0.4164 P   0  0  0  0  0  0  0  0  0  0  0  0
   -3.9707    1.4263    0.4771 S   0  0  0  0  0  0  0  0  0  0  0  0
   -1.9630   -0.4174    1.7908 O   0  0  0  0  0  0  0  0  0  0  0  0
   -1.7569    0.5408    2.8433 C   0  0  0  0  0  0  0  0  0  0  0  0
   -0.7849    1.6353    2.4499 C   0  0  0  0  0  0  0  0  0  0  0  0
   -3.2172   -1.4635    0.0750 O   0  0  0  0  0  0  0  0  0  0  0  0
   -4.3060   -1.6430   -0.8483 C   0  0  0  0  0  0  0  0  0  0  0  0
   -3.8948   -1.3660   -2.2810 C   0  0  0  0  0  0  0  0  0  0  0  0
    6.2871   -0.3188    0.1648 H   0  0  0  0  0  0  0  0  0  0  0  0
    6.3684   -2.0603   -0.1516 H   0  0  0  0  0  0  0  0  0  0  0  0
    5.4088   -1.0118   -1.2050 H   0  0  0  0  0  0  0  0  0  0  0  0
    4.8236   -1.5914    1.7481 H   0  0  0  0  0  0  0  0  0  0  0  0
    3.9301   -2.2624    0.3574 H   0  0  0  0  0  0  0  0  0  0  0  0
    2.5459    3.3164    0.3386 H   0  0  0  0  0  0  0  0  0  0  0  0
    3.2591    2.3751   -1.0016 H   0  0  0  0  0  0  0  0  0  0  0  0
    0.3151    3.1913   -0.8113 H   0  0  0  0  0  0  0  0  0  0  0  0
    1.5288    3.9728   -1.8390 H   0  0  0  0  0  0  0  0  0  0  0  0
    1.0541    2.2930   -2.1373 H   0  0  0  0  0  0  0  0  0  0  0  0
   -0.9305   -2.1035   -0.3603 H   0  0  0  0  0  0  0  0  0  0  0  0
    0.3583   -1.5940   -1.5138 H   0  0  0  0  0  0  0  0  0  0  0  0
   -2.7261    0.9740    3.1100 H   0  0  0  0  0  0  0  0  0  0  0  0
   -1.3751   -0.0592    3.6704 H   0  0  0  0  0  0  0  0  0  0  0  0
   -1.1922    2.2066    1.6152 H   0  0  0  0  0  0  0  0  0  0  0  0
   -0.6363    2.3031    3.2926 H   0  0  0  0  0  0  0  0  0  0  0  0
    0.1738    1.2153    2.1545 H   0  0  0  0  0  0  0  0  0  0  0  0
   -4.6014   -2.6836   -0.7065 H   0  0  0  0  0  0  0  0  0  0  0  0
   -5.1255   -0.9810   -0.5511 H   0  0  0  0  0  0  0  0  0  0  0  0
   -4.7272   -1.5896   -2.9405 H   0  0  0  0  0  0  0  0  0  0  0  0
   -3.6276   -0.3158   -2.3953 H   0  0  0  0  0  0  0  0  0  0  0  0
   -3.0417   -1.9788   -2.5615 H   0  0  0  0  0  0  0  0  0  0  0  0
  1  2  1  0  0  0  0
  2  3  1  0  0  0  0
  3  4  2  0  0  0  0
  4  5  2  0  0  0  0
  4  6  2  0  0  0  0
  6  7  1  0  0  0  0
  7  8  1  0  0  0  0
  4  9  1  0  0  0  0
  9 10  1  0  0  0  0
 10 11  1  0  0  0  0
 11 12  1  0  0  0  0
 12 13  2  0  0  0  0
 12 14  2  0  0  0  0
 14 15  1  0  0  0  0
 15 16  1  0  0  0  0
 12 17  2  0  0  0  0
 17 18  1  0  0  0  0
 18 19  1  0  0  0  0
  1 20  1  0  0  0  0
  1 21  1  0  0  0  0
  1 22  1  0  0  0  0
  2 23  1  0  0  0  0
  2 24  1  0  0  0  0
  7 25  1  0  0  0  0
  7 26  1  0  0  0  0
  8 27  1  0  0  0  0
  8 28  1  0  0  0  0
  8 29  1  0  0  0  0
 10 30  1  0  0  0  0
 10 31  1  0  0  0  0
 15 32  1  0  0  0  0
 15 33  1  0  0  0  0
 16 34  1  0  0  0  0
 16 35  1  0  0  0  0
 16 36  1  0  0  0  0
 18 37  1  0  0  0  0
 18 38  1  0  0  0  0
 19 39  1  0  0  0  0
 19 40  1  0  0  0  0
 19 41  1  0  0  0  0
M  END
