 xtb: 6.7.1 (edcfbbe)
          04032519423D

 20 20  0     0  0            999 V2000
    0.5957    1.7076   -0.0670 C   0  0  0  0  0  0  0  0  0  0  0  0
    1.3934    0.4116   -0.2670 C   0  0  0  0  0  0  0  0  0  0  0  0
    1.5999    0.2652   -1.3384 H   0  0  0  0  0  0  0  0  0  0  0  0
    0.5466   -0.7733    0.2179 C   0  0  0  0  0  0  0  0  0  0  0  0
    0.3648   -0.6663    1.2973 H   0  0  0  0  0  0  0  0  0  0  0  0
   -0.7967   -0.7503   -0.5154 C   0  0  0  0  0  0  0  0  0  0  0  0
   -0.5994   -0.8254   -1.5979 H   0  0  0  0  0  0  0  0  0  0  0  0
   -1.4837    0.6013   -0.2590 C   0  0  0  0  0  0  0  0  0  0  0  0
   -2.3913    0.6595   -0.8735 H   0  0  0  0  0  0  0  0  0  0  0  0
   -0.6661    1.6545   -0.7181 O   0  0  0  0  0  0  0  0  0  0  0  0
   -1.7662    0.7164    1.0945 O   0  0  0  0  0  0  0  0  0  0  0  0
   -1.6534   -1.7793   -0.1080 O   0  0  0  0  0  0  0  0  0  0  0  0
    1.1660   -2.0074   -0.0561 O   0  0  0  0  0  0  0  0  0  0  0  0
    2.5880    0.4042    0.4776 O   0  0  0  0  0  0  0  0  0  0  0  0
    1.1045    2.5634   -0.5111 H   0  0  0  0  0  0  0  0  0  0  0  0
    0.4595    1.8703    1.0092 H   0  0  0  0  0  0  0  0  0  0  0  0
   -2.4135    1.4215    1.2468 H   0  0  0  0  0  0  0  0  0  0  0  0
   -1.1355   -2.5989   -0.0693 H   0  0  0  0  0  0  0  0  0  0  0  0
    2.0522   -1.9944    0.3347 H   0  0  0  0  0  0  0  0  0  0  0  0
    3.1808    1.1001    0.1612 H   0  0  0  0  0  0  0  0  0  0  0  0
  1  2  1  0  0  0  0
  2  3  1  0  0  0  0
  2  4  1  0  0  0  0
  4  5  1  0  0  0  0
  4  6  1  0  0  0  0
  6  7  1  0  0  0  0
  6  8  1  0  0  0  0
  8  9  1  0  0  0  0
  1 10  1  0  0  0  0
  8 10  1  0  0  0  0
  8 11  1  0  0  0  0
  6 12  1  0  0  0  0
  4 13  1  0  0  0  0
  2 14  1  0  0  0  0
  1 15  1  0  0  0  0
  1 16  1  0  0  0  0
 11 17  1  0  0  0  0
 12 18  1  0  0  0  0
 13 19  1  0  0  0  0
 14 20  1  0  0  0  0
M  END
