 xtb: 6.7.1 (edcfbbe)
          04092505213D

 41 40  0     0  0            999 V2000
    3.8786   -1.2032   -2.3431 C   0  0  0  0  0  0  0  0  0  0  0  0
    2.5096   -0.5644   -2.2399 C   0  0  0  0  0  0  0  0  0  0  0  0
    1.8199   -0.9716   -1.0432 O   0  0  0  0  0  0  0  0  0  0  0  0
    2.2879   -0.5206    0.4025 P   0  0  0  0  0  0  0  0  0  0  0  0
    3.1345    1.2479    0.5354 S   0  0  0  0  0  0  0  0  0  0  0  0
    3.2040   -1.7440    0.8379 O   0  0  0  0  0  0  0  0  0  0  0  0
    4.1036   -1.6737    1.9578 C   0  0  0  0  0  0  0  0  0  0  0  0
    3.3663   -1.5699    3.2774 C   0  0  0  0  0  0  0  0  0  0  0  0
    0.4835   -0.8096    1.4554 S   0  0  0  0  0  0  0  0  0  0  0  0
   -0.1686    0.8612    1.1980 C   0  0  0  0  0  0  0  0  0  0  0  0
   -0.5156    1.2528   -0.5462 S   0  0  0  0  0  0  0  0  0  0  0  0
   -2.5215    0.5358   -0.5966 P   0  0  0  0  0  0  0  0  0  0  0  0
   -3.4277    0.7016   -2.3235 S   0  0  0  0  0  0  0  0  0  0  0  0
   -3.2063    1.2948    0.6196 O   0  0  0  0  0  0  0  0  0  0  0  0
   -3.5554    2.6888    0.4942 C   0  0  0  0  0  0  0  0  0  0  0  0
   -4.3963    3.0638    1.6974 C   0  0  0  0  0  0  0  0  0  0  0  0
   -2.4904   -0.8960    0.0761 O   0  0  0  0  0  0  0  0  0  0  0  0
   -2.5569   -2.0998   -0.7104 C   0  0  0  0  0  0  0  0  0  0  0  0
   -1.3076   -2.3085   -1.5423 C   0  0  0  0  0  0  0  0  0  0  0  0
    3.7960   -2.2830   -2.2522 H   0  0  0  0  0  0  0  0  0  0  0  0
    4.3221   -0.9521   -3.3014 H   0  0  0  0  0  0  0  0  0  0  0  0
    4.5217   -0.8301   -1.5468 H   0  0  0  0  0  0  0  0  0  0  0  0
    1.8491   -0.8853   -3.0466 H   0  0  0  0  0  0  0  0  0  0  0  0
    2.5864    0.5279   -2.2405 H   0  0  0  0  0  0  0  0  0  0  0  0
    4.6801   -2.5971    1.8889 H   0  0  0  0  0  0  0  0  0  0  0  0
    4.7625   -0.8106    1.8180 H   0  0  0  0  0  0  0  0  0  0  0  0
    4.0782   -1.6423    4.0933 H   0  0  0  0  0  0  0  0  0  0  0  0
    2.8521   -0.6117    3.3420 H   0  0  0  0  0  0  0  0  0  0  0  0
    2.6328   -2.3675    3.3646 H   0  0  0  0  0  0  0  0  0  0  0  0
    0.5743    1.5875    1.5264 H   0  0  0  0  0  0  0  0  0  0  0  0
   -1.0851    0.9314    1.7786 H   0  0  0  0  0  0  0  0  0  0  0  0
   -2.6345    3.2792    0.4478 H   0  0  0  0  0  0  0  0  0  0  0  0
   -4.1083    2.8259   -0.4411 H   0  0  0  0  0  0  0  0  0  0  0  0
   -4.6772    4.1092    1.6229 H   0  0  0  0  0  0  0  0  0  0  0  0
   -5.2929    2.4515    1.7278 H   0  0  0  0  0  0  0  0  0  0  0  0
   -3.8323    2.9067    2.6122 H   0  0  0  0  0  0  0  0  0  0  0  0
   -2.6850   -2.8888    0.0315 H   0  0  0  0  0  0  0  0  0  0  0  0
   -3.4383   -2.0437   -1.3567 H   0  0  0  0  0  0  0  0  0  0  0  0
   -1.3914   -3.2417   -2.0898 H   0  0  0  0  0  0  0  0  0  0  0  0
   -1.2003   -1.4896   -2.2545 H   0  0  0  0  0  0  0  0  0  0  0  0
   -0.4234   -2.3420   -0.9102 H   0  0  0  0  0  0  0  0  0  0  0  0
  1  2  1  0  0  0  0
  2  3  1  0  0  0  0
  3  4  2  0  0  0  0
  4  5  2  0  0  0  0
  4  6  2  0  0  0  0
  6  7  1  0  0  0  0
  7  8  1  0  0  0  0
  4  9  1  0  0  0  0
  9 10  1  0  0  0  0
 10 11  1  0  0  0  0
 11 12  1  0  0  0  0
 12 13  2  0  0  0  0
 12 14  2  0  0  0  0
 14 15  1  0  0  0  0
 15 16  1  0  0  0  0
 12 17  2  0  0  0  0
 17 18  1  0  0  0  0
 18 19  1  0  0  0  0
  1 20  1  0  0  0  0
  1 21  1  0  0  0  0
  1 22  1  0  0  0  0
  2 23  1  0  0  0  0
  2 24  1  0  0  0  0
  7 25  1  0  0  0  0
  7 26  1  0  0  0  0
  8 27  1  0  0  0  0
  8 28  1  0  0  0  0
  8 29  1  0  0  0  0
 10 30  1  0  0  0  0
 10 31  1  0  0  0  0
 15 32  1  0  0  0  0
 15 33  1  0  0  0  0
 16 34  1  0  0  0  0
 16 35  1  0  0  0  0
 16 36  1  0  0  0  0
 18 37  1  0  0  0  0
 18 38  1  0  0  0  0
 19 39  1  0  0  0  0
 19 40  1  0  0  0  0
 19 41  1  0  0  0  0
M  END
