 xtb: 6.7.1 (edcfbbe)
          04092505213D

 41 40  0     0  0            999 V2000
    4.2048    0.0859   -2.2121 C   0  0  0  0  0  0  0  0  0  0  0  0
    4.4692    0.1288   -0.7201 C   0  0  0  0  0  0  0  0  0  0  0  0
    3.3420    0.6780    0.0132 O   0  0  0  0  0  0  0  0  0  0  0  0
    2.1928   -0.1629    0.6957 P   0  0  0  0  0  0  0  0  0  0  0  0
    1.3478    0.8328    2.1525 S   0  0  0  0  0  0  0  0  0  0  0  0
    2.9441   -1.4884    1.1554 O   0  0  0  0  0  0  0  0  0  0  0  0
    2.4024   -2.3518    2.1697 C   0  0  0  0  0  0  0  0  0  0  0  0
    1.1421   -3.0498    1.7019 C   0  0  0  0  0  0  0  0  0  0  0  0
    0.9848   -0.8818   -0.9203 S   0  0  0  0  0  0  0  0  0  0  0  0
    0.5908    0.6940   -1.7172 C   0  0  0  0  0  0  0  0  0  0  0  0
   -0.4705    1.7831   -0.7202 S   0  0  0  0  0  0  0  0  0  0  0  0
   -2.0370    0.3980   -0.4089 P   0  0  0  0  0  0  0  0  0  0  0  0
   -2.4724   -0.7411   -1.9487 S   0  0  0  0  0  0  0  0  0  0  0  0
   -3.2552    1.2617    0.1332 O   0  0  0  0  0  0  0  0  0  0  0  0
   -4.2412    1.8248   -0.7506 C   0  0  0  0  0  0  0  0  0  0  0  0
   -3.6844    2.9788   -1.5582 C   0  0  0  0  0  0  0  0  0  0  0  0
   -1.5224   -0.3029    0.9165 O   0  0  0  0  0  0  0  0  0  0  0  0
   -2.3748   -0.9081    1.9124 C   0  0  0  0  0  0  0  0  0  0  0  0
   -3.0529   -2.1584    1.3913 C   0  0  0  0  0  0  0  0  0  0  0  0
    3.4003   -0.6080   -2.4434 H   0  0  0  0  0  0  0  0  0  0  0  0
    3.9434    1.0751   -2.5793 H   0  0  0  0  0  0  0  0  0  0  0  0
    5.1082   -0.2461   -2.7144 H   0  0  0  0  0  0  0  0  0  0  0  0
    5.2862    0.8128   -0.4838 H   0  0  0  0  0  0  0  0  0  0  0  0
    4.6928   -0.8639   -0.3285 H   0  0  0  0  0  0  0  0  0  0  0  0
    3.2076   -3.0601    2.3692 H   0  0  0  0  0  0  0  0  0  0  0  0
    2.2019   -1.7508    3.0625 H   0  0  0  0  0  0  0  0  0  0  0  0
    0.3573   -2.3132    1.5324 H   0  0  0  0  0  0  0  0  0  0  0  0
    1.3248   -3.5820    0.7714 H   0  0  0  0  0  0  0  0  0  0  0  0
    0.8122   -3.7504    2.4623 H   0  0  0  0  0  0  0  0  0  0  0  0
    0.0743    0.4329   -2.6405 H   0  0  0  0  0  0  0  0  0  0  0  0
    1.4998    1.2574   -1.9150 H   0  0  0  0  0  0  0  0  0  0  0  0
   -4.6038    1.0317   -1.4128 H   0  0  0  0  0  0  0  0  0  0  0  0
   -5.0398    2.1477   -0.0814 H   0  0  0  0  0  0  0  0  0  0  0  0
   -3.2256    3.7135   -0.9010 H   0  0  0  0  0  0  0  0  0  0  0  0
   -2.9310    2.6150   -2.2555 H   0  0  0  0  0  0  0  0  0  0  0  0
   -4.4879    3.4459   -2.1184 H   0  0  0  0  0  0  0  0  0  0  0  0
   -1.6883   -1.1266    2.7331 H   0  0  0  0  0  0  0  0  0  0  0  0
   -3.1067   -0.1657    2.2373 H   0  0  0  0  0  0  0  0  0  0  0  0
   -3.6150   -2.6236    2.1947 H   0  0  0  0  0  0  0  0  0  0  0  0
   -3.7333   -1.9045    0.5795 H   0  0  0  0  0  0  0  0  0  0  0  0
   -2.3142   -2.8611    1.0128 H   0  0  0  0  0  0  0  0  0  0  0  0
  1  2  1  0  0  0  0
  2  3  1  0  0  0  0
  3  4  2  0  0  0  0
  4  5  2  0  0  0  0
  4  6  2  0  0  0  0
  6  7  1  0  0  0  0
  7  8  1  0  0  0  0
  4  9  1  0  0  0  0
  9 10  1  0  0  0  0
 10 11  1  0  0  0  0
 11 12  1  0  0  0  0
 12 13  2  0  0  0  0
 12 14  2  0  0  0  0
 14 15  1  0  0  0  0
 15 16  1  0  0  0  0
 12 17  2  0  0  0  0
 17 18  1  0  0  0  0
 18 19  1  0  0  0  0
  1 20  1  0  0  0  0
  1 21  1  0  0  0  0
  1 22  1  0  0  0  0
  2 23  1  0  0  0  0
  2 24  1  0  0  0  0
  7 25  1  0  0  0  0
  7 26  1  0  0  0  0
  8 27  1  0  0  0  0
  8 28  1  0  0  0  0
  8 29  1  0  0  0  0
 10 30  1  0  0  0  0
 10 31  1  0  0  0  0
 15 32  1  0  0  0  0
 15 33  1  0  0  0  0
 16 34  1  0  0  0  0
 16 35  1  0  0  0  0
 16 36  1  0  0  0  0
 18 37  1  0  0  0  0
 18 38  1  0  0  0  0
 19 39  1  0  0  0  0
 19 40  1  0  0  0  0
 19 41  1  0  0  0  0
M  END
