 xtb: 6.7.1 (edcfbbe)
          04092507313D

 38 37  0     0  0            999 V2000
    4.0994   -2.7753    0.5618 C   0  0  0  0  0  0  0  0  0  0  0  0
    2.5865   -2.7969    0.4180 C   0  0  0  0  0  0  0  0  0  0  0  0
    2.1676   -2.0510   -0.7407 O   0  0  0  0  0  0  0  0  0  0  0  0
    2.0460   -0.7464   -0.6438 C   0  0  0  0  0  0  0  0  0  0  0  0
    2.2355   -0.0955    0.3638 O   0  0  0  0  0  0  0  0  0  0  0  0
    1.6373   -0.1117   -1.9604 C   0  0  0  0  0  0  0  0  0  0  0  0
    0.4106    0.7824   -1.7602 C   0  0  0  0  0  0  0  0  0  0  0  0
    0.3008    1.4592   -2.6108 H   0  0  0  0  0  0  0  0  0  0  0  0
    0.5235    1.5965   -0.4862 C   0  0  0  0  0  0  0  0  0  0  0  0
   -0.2614    1.4643    0.4371 O   0  0  0  0  0  0  0  0  0  0  0  0
    1.4943    2.4579   -0.5358 O   0  0  0  0  0  0  0  0  0  0  0  0
    1.7636    3.2608    0.6347 C   0  0  0  0  0  0  0  0  0  0  0  0
    0.8508    4.4741    0.6903 C   0  0  0  0  0  0  0  0  0  0  0  0
   -1.1404   -0.1734   -1.7104 S   0  0  0  0  0  0  0  0  0  0  0  0
   -1.6487   -0.5146    0.3359 P   0  0  0  0  0  0  0  0  0  0  0  0
   -0.4634   -1.1682    1.7524 S   0  0  0  0  0  0  0  0  0  0  0  0
   -2.7671    0.5642    0.7404 O   0  0  0  0  0  0  0  0  0  0  0  0
   -2.6522    1.5641    1.7495 C   0  0  0  0  0  0  0  0  0  0  0  0
   -2.6156   -1.7611    0.0415 O   0  0  0  0  0  0  0  0  0  0  0  0
   -3.7607   -1.7235   -0.8253 C   0  0  0  0  0  0  0  0  0  0  0  0
    4.3850   -3.4046    1.3980 H   0  0  0  0  0  0  0  0  0  0  0  0
    4.5665   -3.1475   -0.3460 H   0  0  0  0  0  0  0  0  0  0  0  0
    4.4418   -1.7607    0.7519 H   0  0  0  0  0  0  0  0  0  0  0  0
    2.0978   -2.3723    1.3007 H   0  0  0  0  0  0  0  0  0  0  0  0
    2.2142   -3.8051    0.2367 H   0  0  0  0  0  0  0  0  0  0  0  0
    1.4267   -0.8855   -2.6967 H   0  0  0  0  0  0  0  0  0  0  0  0
    2.4708    0.5086   -2.2968 H   0  0  0  0  0  0  0  0  0  0  0  0
    1.6437    2.6270    1.5175 H   0  0  0  0  0  0  0  0  0  0  0  0
    2.8078    3.5501    0.5186 H   0  0  0  0  0  0  0  0  0  0  0  0
    1.1271    5.0866    1.5419 H   0  0  0  0  0  0  0  0  0  0  0  0
    0.9496    5.0591   -0.2198 H   0  0  0  0  0  0  0  0  0  0  0  0
   -0.1850    4.1633    0.8046 H   0  0  0  0  0  0  0  0  0  0  0  0
   -3.6146    1.5932    2.2567 H   0  0  0  0  0  0  0  0  0  0  0  0
   -2.4329    2.5226    1.2822 H   0  0  0  0  0  0  0  0  0  0  0  0
   -1.8596    1.3054    2.4526 H   0  0  0  0  0  0  0  0  0  0  0  0
   -4.3038   -2.6419   -0.6159 H   0  0  0  0  0  0  0  0  0  0  0  0
   -3.4376   -1.6981   -1.8656 H   0  0  0  0  0  0  0  0  0  0  0  0
   -4.3755   -0.8539   -0.6003 H   0  0  0  0  0  0  0  0  0  0  0  0
  1  2  1  0  0  0  0
  2  3  1  0  0  0  0
  3  4  4  0  0  0  0
  4  5  2  0  0  0  0
  4  6  1  0  0  0  0
  6  7  1  0  0  0  0
  7  8  1  0  0  0  0
  7  9  1  0  0  0  0
  9 10  2  0  0  0  0
  9 11  4  0  0  0  0
 11 12  1  0  0  0  0
 12 13  1  0  0  0  0
  7 14  1  0  0  0  0
 14 15  1  0  0  0  0
 15 16  2  0  0  0  0
 15 17  1  0  0  0  0
 17 18  1  0  0  0  0
 15 19  1  0  0  0  0
 19 20  1  0  0  0  0
  1 21  1  0  0  0  0
  1 22  1  0  0  0  0
  1 23  1  0  0  0  0
  2 24  1  0  0  0  0
  2 25  1  0  0  0  0
  6 26  1  0  0  0  0
  6 27  1  0  0  0  0
 12 28  1  0  0  0  0
 12 29  1  0  0  0  0
 13 30  1  0  0  0  0
 13 31  1  0  0  0  0
 13 32  1  0  0  0  0
 18 33  1  0  0  0  0
 18 34  1  0  0  0  0
 18 35  1  0  0  0  0
 20 36  1  0  0  0  0
 20 37  1  0  0  0  0
 20 38  1  0  0  0  0
M  END
