 xtb: 6.7.1 (edcfbbe)
          04092505203D

 41 40  0     0  0            999 V2000
    4.5488   -1.5954   -0.5153 C   0  0  0  0  0  0  0  0  0  0  0  0
    4.5747   -0.1186   -0.1774 C   0  0  0  0  0  0  0  0  0  0  0  0
    3.3915    0.3023    0.5219 O   0  0  0  0  0  0  0  0  0  0  0  0
    1.9582    0.3564   -0.1684 P   0  0  0  0  0  0  0  0  0  0  0  0
    1.9844    0.9293   -2.0473 S   0  0  0  0  0  0  0  0  0  0  0  0
    1.1592    1.2478    0.8678 O   0  0  0  0  0  0  0  0  0  0  0  0
    1.1041    2.6825    0.7777 C   0  0  0  0  0  0  0  0  0  0  0  0
    2.4518    3.3224    1.0329 C   0  0  0  0  0  0  0  0  0  0  0  0
    1.1632   -1.5408    0.2628 S   0  0  0  0  0  0  0  0  0  0  0  0
   -0.0052   -1.7470   -1.1255 C   0  0  0  0  0  0  0  0  0  0  0  0
   -1.6966   -2.0323   -0.5688 S   0  0  0  0  0  0  0  0  0  0  0  0
   -2.1112   -0.0556    0.0961 P   0  0  0  0  0  0  0  0  0  0  0  0
   -1.5259    1.3843   -1.0948 S   0  0  0  0  0  0  0  0  0  0  0  0
   -1.4512    0.1229    1.5149 O   0  0  0  0  0  0  0  0  0  0  0  0
   -1.7002   -0.7793    2.6258 C   0  0  0  0  0  0  0  0  0  0  0  0
   -0.5449   -0.6520    3.5962 C   0  0  0  0  0  0  0  0  0  0  0  0
   -3.6518   -0.1292    0.4765 O   0  0  0  0  0  0  0  0  0  0  0  0
   -4.6933   -0.6714   -0.3586 C   0  0  0  0  0  0  0  0  0  0  0  0
   -4.7284   -0.0434   -1.7357 C   0  0  0  0  0  0  0  0  0  0  0  0
    3.7790   -1.7922   -1.2602 H   0  0  0  0  0  0  0  0  0  0  0  0
    5.5123   -1.8863   -0.9212 H   0  0  0  0  0  0  0  0  0  0  0  0
    4.3370   -2.1837    0.3739 H   0  0  0  0  0  0  0  0  0  0  0  0
    4.6676    0.4805   -1.0891 H   0  0  0  0  0  0  0  0  0  0  0  0
    5.3847    0.1232    0.5120 H   0  0  0  0  0  0  0  0  0  0  0  0
    0.7209    2.9527   -0.2126 H   0  0  0  0  0  0  0  0  0  0  0  0
    0.3674    2.9604    1.5334 H   0  0  0  0  0  0  0  0  0  0  0  0
    3.1403    3.0700    0.2273 H   0  0  0  0  0  0  0  0  0  0  0  0
    2.3335    4.4009    1.0701 H   0  0  0  0  0  0  0  0  0  0  0  0
    2.8628    2.9670    1.9742 H   0  0  0  0  0  0  0  0  0  0  0  0
    0.2828   -2.6350   -1.6819 H   0  0  0  0  0  0  0  0  0  0  0  0
    0.0348   -0.8537   -1.7555 H   0  0  0  0  0  0  0  0  0  0  0  0
   -2.6472   -0.4847    3.0816 H   0  0  0  0  0  0  0  0  0  0  0  0
   -1.7837   -1.7991    2.2379 H   0  0  0  0  0  0  0  0  0  0  0  0
   -0.7171   -1.3103    4.4416 H   0  0  0  0  0  0  0  0  0  0  0  0
    0.3865   -0.9297    3.1085 H   0  0  0  0  0  0  0  0  0  0  0  0
   -0.4616    0.3729    3.9462 H   0  0  0  0  0  0  0  0  0  0  0  0
   -4.5425   -1.7519   -0.4296 H   0  0  0  0  0  0  0  0  0  0  0  0
   -5.6056   -0.4580    0.2011 H   0  0  0  0  0  0  0  0  0  0  0  0
   -3.8129   -0.2748   -2.2786 H   0  0  0  0  0  0  0  0  0  0  0  0
   -5.5761   -0.4342   -2.2892 H   0  0  0  0  0  0  0  0  0  0  0  0
   -4.8150    1.0380   -1.6586 H   0  0  0  0  0  0  0  0  0  0  0  0
  1  2  1  0  0  0  0
  2  3  1  0  0  0  0
  3  4  2  0  0  0  0
  4  5  2  0  0  0  0
  4  6  2  0  0  0  0
  6  7  1  0  0  0  0
  7  8  1  0  0  0  0
  4  9  1  0  0  0  0
  9 10  1  0  0  0  0
 10 11  1  0  0  0  0
 11 12  1  0  0  0  0
 12 13  2  0  0  0  0
 12 14  2  0  0  0  0
 14 15  1  0  0  0  0
 15 16  1  0  0  0  0
 12 17  2  0  0  0  0
 17 18  1  0  0  0  0
 18 19  1  0  0  0  0
  1 20  1  0  0  0  0
  1 21  1  0  0  0  0
  1 22  1  0  0  0  0
  2 23  1  0  0  0  0
  2 24  1  0  0  0  0
  7 25  1  0  0  0  0
  7 26  1  0  0  0  0
  8 27  1  0  0  0  0
  8 28  1  0  0  0  0
  8 29  1  0  0  0  0
 10 30  1  0  0  0  0
 10 31  1  0  0  0  0
 15 32  1  0  0  0  0
 15 33  1  0  0  0  0
 16 34  1  0  0  0  0
 16 35  1  0  0  0  0
 16 36  1  0  0  0  0
 18 37  1  0  0  0  0
 18 38  1  0  0  0  0
 19 39  1  0  0  0  0
 19 40  1  0  0  0  0
 19 41  1  0  0  0  0
M  END
