 xtb: 6.7.1 (edcfbbe)
          04092505213D

 41 40  0     0  0            999 V2000
    2.0060    2.7670   -0.1768 C   0  0  0  0  0  0  0  0  0  0  0  0
    2.8142    2.4081    1.0525 C   0  0  0  0  0  0  0  0  0  0  0  0
    3.0909    0.9979    1.1271 O   0  0  0  0  0  0  0  0  0  0  0  0
    1.9423   -0.0913    1.2816 P   0  0  0  0  0  0  0  0  0  0  0  0
    0.4615    0.3667    2.4719 S   0  0  0  0  0  0  0  0  0  0  0  0
    2.7302   -1.3395    1.8431 O   0  0  0  0  0  0  0  0  0  0  0  0
    3.9865   -1.8252    1.2997 C   0  0  0  0  0  0  0  0  0  0  0  0
    3.7669   -3.0770    0.4731 C   0  0  0  0  0  0  0  0  0  0  0  0
    1.4548   -0.5925   -0.7303 S   0  0  0  0  0  0  0  0  0  0  0  0
    0.1282   -1.7702   -0.3196 C   0  0  0  0  0  0  0  0  0  0  0  0
   -1.2400   -1.7474   -1.5133 S   0  0  0  0  0  0  0  0  0  0  0  0
   -2.1966    0.0563   -1.0099 P   0  0  0  0  0  0  0  0  0  0  0  0
   -3.8972    0.4267   -1.9090 S   0  0  0  0  0  0  0  0  0  0  0  0
   -1.1292    1.2398   -1.1542 O   0  0  0  0  0  0  0  0  0  0  0  0
   -1.0144    1.9862   -2.3789 C   0  0  0  0  0  0  0  0  0  0  0  0
   -0.4060    1.1535   -3.4890 C   0  0  0  0  0  0  0  0  0  0  0  0
   -2.2619   -0.1310    0.5618 O   0  0  0  0  0  0  0  0  0  0  0  0
   -2.9634    0.8192    1.3939 C   0  0  0  0  0  0  0  0  0  0  0  0
   -3.3399    0.1209    2.6830 C   0  0  0  0  0  0  0  0  0  0  0  0
    1.9090    3.8464   -0.2395 H   0  0  0  0  0  0  0  0  0  0  0  0
    2.4941    2.3935   -1.0739 H   0  0  0  0  0  0  0  0  0  0  0  0
    1.0125    2.3255   -0.1041 H   0  0  0  0  0  0  0  0  0  0  0  0
    2.2830    2.7036    1.9626 H   0  0  0  0  0  0  0  0  0  0  0  0
    3.8042    2.8662    1.0352 H   0  0  0  0  0  0  0  0  0  0  0  0
    4.4518   -1.0327    0.7119 H   0  0  0  0  0  0  0  0  0  0  0  0
    4.5959   -2.0360    2.1800 H   0  0  0  0  0  0  0  0  0  0  0  0
    3.2256   -2.8481   -0.4414 H   0  0  0  0  0  0  0  0  0  0  0  0
    4.7329   -3.4976    0.2115 H   0  0  0  0  0  0  0  0  0  0  0  0
    3.2057   -3.8089    1.0481 H   0  0  0  0  0  0  0  0  0  0  0  0
   -0.2543   -1.5333    0.6738 H   0  0  0  0  0  0  0  0  0  0  0  0
    0.5196   -2.7838   -0.3647 H   0  0  0  0  0  0  0  0  0  0  0  0
   -2.0133    2.3337   -2.6620 H   0  0  0  0  0  0  0  0  0  0  0  0
   -0.3839    2.8367   -2.1176 H   0  0  0  0  0  0  0  0  0  0  0  0
   -1.0781    0.3350   -3.7469 H   0  0  0  0  0  0  0  0  0  0  0  0
   -0.2584    1.7768   -4.3648 H   0  0  0  0  0  0  0  0  0  0  0  0
    0.5481    0.7376   -3.1737 H   0  0  0  0  0  0  0  0  0  0  0  0
   -2.2905    1.6588    1.5830 H   0  0  0  0  0  0  0  0  0  0  0  0
   -3.8463    1.1708    0.8491 H   0  0  0  0  0  0  0  0  0  0  0  0
   -2.4392   -0.2043    3.1977 H   0  0  0  0  0  0  0  0  0  0  0  0
   -3.8830    0.8142    3.3165 H   0  0  0  0  0  0  0  0  0  0  0  0
   -3.9641   -0.7433    2.4734 H   0  0  0  0  0  0  0  0  0  0  0  0
  1  2  1  0  0  0  0
  2  3  1  0  0  0  0
  3  4  2  0  0  0  0
  4  5  2  0  0  0  0
  4  6  2  0  0  0  0
  6  7  1  0  0  0  0
  7  8  1  0  0  0  0
  4  9  1  0  0  0  0
  9 10  1  0  0  0  0
 10 11  1  0  0  0  0
 11 12  1  0  0  0  0
 12 13  2  0  0  0  0
 12 14  2  0  0  0  0
 14 15  1  0  0  0  0
 15 16  1  0  0  0  0
 12 17  2  0  0  0  0
 17 18  1  0  0  0  0
 18 19  1  0  0  0  0
  1 20  1  0  0  0  0
  1 21  1  0  0  0  0
  1 22  1  0  0  0  0
  2 23  1  0  0  0  0
  2 24  1  0  0  0  0
  7 25  1  0  0  0  0
  7 26  1  0  0  0  0
  8 27  1  0  0  0  0
  8 28  1  0  0  0  0
  8 29  1  0  0  0  0
 10 30  1  0  0  0  0
 10 31  1  0  0  0  0
 15 32  1  0  0  0  0
 15 33  1  0  0  0  0
 16 34  1  0  0  0  0
 16 35  1  0  0  0  0
 16 36  1  0  0  0  0
 18 37  1  0  0  0  0
 18 38  1  0  0  0  0
 19 39  1  0  0  0  0
 19 40  1  0  0  0  0
 19 41  1  0  0  0  0
M  END
