 xtb: 6.7.1 (edcfbbe)
          04032519423D

 20 20  0     0  0            999 V2000
    0.8111    1.3158   -0.9996 C   0  0  0  0  0  0  0  0  0  0  0  0
    1.4344    0.3408    0.0075 C   0  0  0  0  0  0  0  0  0  0  0  0
    2.4493    0.1166   -0.3381 H   0  0  0  0  0  0  0  0  0  0  0  0
    0.6228   -0.9795    0.0663 C   0  0  0  0  0  0  0  0  0  0  0  0
    0.5516   -1.2871    1.1194 H   0  0  0  0  0  0  0  0  0  0  0  0
   -0.8043   -0.7662   -0.4619 C   0  0  0  0  0  0  0  0  0  0  0  0
   -0.7712   -0.8134   -1.5611 H   0  0  0  0  0  0  0  0  0  0  0  0
   -1.2929    0.6320   -0.0733 C   0  0  0  0  0  0  0  0  0  0  0  0
   -2.3325    0.7506   -0.4050 H   0  0  0  0  0  0  0  0  0  0  0  0
   -0.5570    1.6285   -0.7316 O   0  0  0  0  0  0  0  0  0  0  0  0
   -1.2020    0.7792    1.3163 O   0  0  0  0  0  0  0  0  0  0  0  0
   -1.7157   -1.7048    0.0395 O   0  0  0  0  0  0  0  0  0  0  0  0
    1.1941   -2.0012   -0.7178 O   0  0  0  0  0  0  0  0  0  0  0  0
    1.5935    0.9128    1.2802 O   0  0  0  0  0  0  0  0  0  0  0  0
    0.8917    0.8861   -2.0050 H   0  0  0  0  0  0  0  0  0  0  0  0
    1.3372    2.2716   -0.9678 H   0  0  0  0  0  0  0  0  0  0  0  0
   -1.7466    1.5262    1.6072 H   0  0  0  0  0  0  0  0  0  0  0  0
   -1.4046   -2.5931   -0.1914 H   0  0  0  0  0  0  0  0  0  0  0  0
    2.0385   -2.2775   -0.3343 H   0  0  0  0  0  0  0  0  0  0  0  0
    0.7053    1.0707    1.6506 H   0  0  0  0  0  0  0  0  0  0  0  0
  1  2  1  0  0  0  0
  2  3  1  0  0  0  0
  2  4  1  0  0  0  0
  4  5  1  0  0  0  0
  4  6  1  0  0  0  0
  6  7  1  0  0  0  0
  6  8  1  0  0  0  0
  8  9  1  0  0  0  0
  1 10  1  0  0  0  0
  8 10  1  0  0  0  0
  8 11  1  0  0  0  0
  6 12  1  0  0  0  0
  4 13  1  0  0  0  0
  2 14  1  0  0  0  0
  1 15  1  0  0  0  0
  1 16  1  0  0  0  0
 11 17  1  0  0  0  0
 12 18  1  0  0  0  0
 13 19  1  0  0  0  0
 14 20  1  0  0  0  0
M  END
