 xtb: 6.7.1 (edcfbbe)
          04092505203D

 41 40  0     0  0            999 V2000
    4.3674   -0.3238   -2.0575 C   0  0  0  0  0  0  0  0  0  0  0  0
    4.3911    0.7711   -1.0102 C   0  0  0  0  0  0  0  0  0  0  0  0
    3.6281    0.4274    0.1577 O   0  0  0  0  0  0  0  0  0  0  0  0
    2.0488    0.2610    0.1386 P   0  0  0  0  0  0  0  0  0  0  0  0
    1.1047    1.5855   -0.9618 S   0  0  0  0  0  0  0  0  0  0  0  0
    1.6674    0.4179    1.6610 O   0  0  0  0  0  0  0  0  0  0  0  0
    1.8638   -0.5656    2.7108 C   0  0  0  0  0  0  0  0  0  0  0  0
    3.2989   -1.0302    2.8203 C   0  0  0  0  0  0  0  0  0  0  0  0
    1.7425   -1.7836   -0.3566 S   0  0  0  0  0  0  0  0  0  0  0  0
   -0.0075   -1.6850   -0.7890 C   0  0  0  0  0  0  0  0  0  0  0  0
   -1.0265   -1.0714    0.5919 S   0  0  0  0  0  0  0  0  0  0  0  0
   -2.2076    0.3930   -0.4057 P   0  0  0  0  0  0  0  0  0  0  0  0
   -2.0769    0.4497   -2.3569 S   0  0  0  0  0  0  0  0  0  0  0  0
   -1.9095    1.7822    0.2735 O   0  0  0  0  0  0  0  0  0  0  0  0
   -1.5323    2.0246    1.6479 C   0  0  0  0  0  0  0  0  0  0  0  0
   -2.4810    1.3884    2.6401 C   0  0  0  0  0  0  0  0  0  0  0  0
   -3.6843    0.1068    0.1223 O   0  0  0  0  0  0  0  0  0  0  0  0
   -4.5857   -0.8007   -0.5314 C   0  0  0  0  0  0  0  0  0  0  0  0
   -4.1022   -2.2361   -0.4833 C   0  0  0  0  0  0  0  0  0  0  0  0
    5.0635   -0.0745   -2.8519 H   0  0  0  0  0  0  0  0  0  0  0  0
    4.6476   -1.2772   -1.6169 H   0  0  0  0  0  0  0  0  0  0  0  0
    3.3686   -0.4113   -2.4829 H   0  0  0  0  0  0  0  0  0  0  0  0
    3.9935    1.7046   -1.4214 H   0  0  0  0  0  0  0  0  0  0  0  0
    5.3975    0.9360   -0.6227 H   0  0  0  0  0  0  0  0  0  0  0  0
    1.5424   -0.0345    3.6078 H   0  0  0  0  0  0  0  0  0  0  0  0
    1.1889   -1.4043    2.5166 H   0  0  0  0  0  0  0  0  0  0  0  0
    3.5873   -1.5825    1.9284 H   0  0  0  0  0  0  0  0  0  0  0  0
    3.9631   -0.1779    2.9361 H   0  0  0  0  0  0  0  0  0  0  0  0
    3.3929   -1.6804    3.6846 H   0  0  0  0  0  0  0  0  0  0  0  0
   -0.3128   -2.7006   -1.0288 H   0  0  0  0  0  0  0  0  0  0  0  0
   -0.1531   -1.0162   -1.6424 H   0  0  0  0  0  0  0  0  0  0  0  0
   -0.5082    1.6645    1.7863 H   0  0  0  0  0  0  0  0  0  0  0  0
   -1.5416    3.1137    1.7163 H   0  0  0  0  0  0  0  0  0  0  0  0
   -3.4987    1.7177    2.4475 H   0  0  0  0  0  0  0  0  0  0  0  0
   -2.4402    0.3031    2.5597 H   0  0  0  0  0  0  0  0  0  0  0  0
   -2.1898    1.6808    3.6442 H   0  0  0  0  0  0  0  0  0  0  0  0
   -5.5218   -0.6720    0.0139 H   0  0  0  0  0  0  0  0  0  0  0  0
   -4.7108   -0.4741   -1.5686 H   0  0  0  0  0  0  0  0  0  0  0  0
   -3.2134   -2.3459   -1.1033 H   0  0  0  0  0  0  0  0  0  0  0  0
   -3.8638   -2.5238    0.5374 H   0  0  0  0  0  0  0  0  0  0  0  0
   -4.8798   -2.8870   -0.8699 H   0  0  0  0  0  0  0  0  0  0  0  0
  1  2  1  0  0  0  0
  2  3  1  0  0  0  0
  3  4  2  0  0  0  0
  4  5  2  0  0  0  0
  4  6  2  0  0  0  0
  6  7  1  0  0  0  0
  7  8  1  0  0  0  0
  4  9  1  0  0  0  0
  9 10  1  0  0  0  0
 10 11  1  0  0  0  0
 11 12  1  0  0  0  0
 12 13  2  0  0  0  0
 12 14  2  0  0  0  0
 14 15  1  0  0  0  0
 15 16  1  0  0  0  0
 12 17  2  0  0  0  0
 17 18  1  0  0  0  0
 18 19  1  0  0  0  0
  1 20  1  0  0  0  0
  1 21  1  0  0  0  0
  1 22  1  0  0  0  0
  2 23  1  0  0  0  0
  2 24  1  0  0  0  0
  7 25  1  0  0  0  0
  7 26  1  0  0  0  0
  8 27  1  0  0  0  0
  8 28  1  0  0  0  0
  8 29  1  0  0  0  0
 10 30  1  0  0  0  0
 10 31  1  0  0  0  0
 15 32  1  0  0  0  0
 15 33  1  0  0  0  0
 16 34  1  0  0  0  0
 16 35  1  0  0  0  0
 16 36  1  0  0  0  0
 18 37  1  0  0  0  0
 18 38  1  0  0  0  0
 19 39  1  0  0  0  0
 19 40  1  0  0  0  0
 19 41  1  0  0  0  0
M  END
