 xtb: 6.7.1 (edcfbbe)
          04092505213D

 41 40  0     0  0            999 V2000
    5.3736   -0.6571   -0.6185 C   0  0  0  0  0  0  0  0  0  0  0  0
    4.3192   -0.2745   -1.6371 C   0  0  0  0  0  0  0  0  0  0  0  0
    3.3207    0.6061   -1.0781 O   0  0  0  0  0  0  0  0  0  0  0  0
    2.2581    0.1545    0.0039 P   0  0  0  0  0  0  0  0  0  0  0  0
    2.7889    0.0410    1.8897 S   0  0  0  0  0  0  0  0  0  0  0  0
    1.7115   -1.2059   -0.6083 O   0  0  0  0  0  0  0  0  0  0  0  0
    1.1766   -2.2991    0.1577 C   0  0  0  0  0  0  0  0  0  0  0  0
    2.1478   -3.4622    0.1375 C   0  0  0  0  0  0  0  0  0  0  0  0
    0.8789    1.6968   -0.4431 S   0  0  0  0  0  0  0  0  0  0  0  0
    0.0200    1.7175    1.1540 C   0  0  0  0  0  0  0  0  0  0  0  0
   -1.0028    0.2481    1.4567 S   0  0  0  0  0  0  0  0  0  0  0  0
   -2.1597    0.2125   -0.3550 P   0  0  0  0  0  0  0  0  0  0  0  0
   -1.3889   -0.6690   -1.9206 S   0  0  0  0  0  0  0  0  0  0  0  0
   -2.5306    1.7198   -0.6154 O   0  0  0  0  0  0  0  0  0  0  0  0
   -3.3559    2.5116    0.2803 C   0  0  0  0  0  0  0  0  0  0  0  0
   -4.7958    2.5190   -0.1902 C   0  0  0  0  0  0  0  0  0  0  0  0
   -3.5337   -0.4252    0.1283 O   0  0  0  0  0  0  0  0  0  0  0  0
   -3.7436   -1.8465    0.1849 C   0  0  0  0  0  0  0  0  0  0  0  0
   -3.0497   -2.4690    1.3793 C   0  0  0  0  0  0  0  0  0  0  0  0
    4.9238   -1.2241    0.1951 H   0  0  0  0  0  0  0  0  0  0  0  0
    6.1339   -1.2654   -1.0981 H   0  0  0  0  0  0  0  0  0  0  0  0
    5.8346    0.2345   -0.2006 H   0  0  0  0  0  0  0  0  0  0  0  0
    3.8170   -1.1582   -2.0382 H   0  0  0  0  0  0  0  0  0  0  0  0
    4.7452    0.3104   -2.4541 H   0  0  0  0  0  0  0  0  0  0  0  0
    0.9928   -1.9667    1.1847 H   0  0  0  0  0  0  0  0  0  0  0  0
    0.2316   -2.5550   -0.3276 H   0  0  0  0  0  0  0  0  0  0  0  0
    2.3741   -3.7438   -0.8870 H   0  0  0  0  0  0  0  0  0  0  0  0
    3.0694   -3.1863    0.6455 H   0  0  0  0  0  0  0  0  0  0  0  0
    1.6996   -4.3060    0.6516 H   0  0  0  0  0  0  0  0  0  0  0  0
   -0.5940    2.6139    1.1663 H   0  0  0  0  0  0  0  0  0  0  0  0
    0.7538    1.7316    1.9623 H   0  0  0  0  0  0  0  0  0  0  0  0
   -3.2762    2.1086    1.2931 H   0  0  0  0  0  0  0  0  0  0  0  0
   -2.9224    3.5128    0.2357 H   0  0  0  0  0  0  0  0  0  0  0  0
   -5.2151    1.5182   -0.1378 H   0  0  0  0  0  0  0  0  0  0  0  0
   -5.3724    3.1838    0.4456 H   0  0  0  0  0  0  0  0  0  0  0  0
   -4.8492    2.8687   -1.2175 H   0  0  0  0  0  0  0  0  0  0  0  0
   -4.8273   -1.9523    0.2511 H   0  0  0  0  0  0  0  0  0  0  0  0
   -3.3843   -2.2866   -0.7512 H   0  0  0  0  0  0  0  0  0  0  0  0
   -3.3665   -1.9816    2.2972 H   0  0  0  0  0  0  0  0  0  0  0  0
   -3.2954   -3.5248    1.4275 H   0  0  0  0  0  0  0  0  0  0  0  0
   -1.9700   -2.3603    1.2844 H   0  0  0  0  0  0  0  0  0  0  0  0
  1  2  1  0  0  0  0
  2  3  1  0  0  0  0
  3  4  2  0  0  0  0
  4  5  2  0  0  0  0
  4  6  2  0  0  0  0
  6  7  1  0  0  0  0
  7  8  1  0  0  0  0
  4  9  1  0  0  0  0
  9 10  1  0  0  0  0
 10 11  1  0  0  0  0
 11 12  1  0  0  0  0
 12 13  2  0  0  0  0
 12 14  2  0  0  0  0
 14 15  1  0  0  0  0
 15 16  1  0  0  0  0
 12 17  2  0  0  0  0
 17 18  1  0  0  0  0
 18 19  1  0  0  0  0
  1 20  1  0  0  0  0
  1 21  1  0  0  0  0
  1 22  1  0  0  0  0
  2 23  1  0  0  0  0
  2 24  1  0  0  0  0
  7 25  1  0  0  0  0
  7 26  1  0  0  0  0
  8 27  1  0  0  0  0
  8 28  1  0  0  0  0
  8 29  1  0  0  0  0
 10 30  1  0  0  0  0
 10 31  1  0  0  0  0
 15 32  1  0  0  0  0
 15 33  1  0  0  0  0
 16 34  1  0  0  0  0
 16 35  1  0  0  0  0
 16 36  1  0  0  0  0
 18 37  1  0  0  0  0
 18 38  1  0  0  0  0
 19 39  1  0  0  0  0
 19 40  1  0  0  0  0
 19 41  1  0  0  0  0
M  END
