 xtb: 6.7.1 (edcfbbe)
          04092505213D

 41 40  0     0  0            999 V2000
    4.4850   -1.6449   -2.9326 C   0  0  0  0  0  0  0  0  0  0  0  0
    4.1127   -0.4522   -2.0759 C   0  0  0  0  0  0  0  0  0  0  0  0
    3.2199   -0.9104   -1.0357 O   0  0  0  0  0  0  0  0  0  0  0  0
    2.1555    0.0424   -0.3528 P   0  0  0  0  0  0  0  0  0  0  0  0
    1.1280    1.1167   -1.6441 S   0  0  0  0  0  0  0  0  0  0  0  0
    3.0859    0.8613    0.6377 O   0  0  0  0  0  0  0  0  0  0  0  0
    2.6796    1.9563    1.4776 C   0  0  0  0  0  0  0  0  0  0  0  0
    2.4353    1.4766    2.8938 C   0  0  0  0  0  0  0  0  0  0  0  0
    1.1442   -1.4023    0.7820 S   0  0  0  0  0  0  0  0  0  0  0  0
   -0.1605   -1.7942   -0.4392 C   0  0  0  0  0  0  0  0  0  0  0  0
   -1.8262   -1.7593    0.2555 S   0  0  0  0  0  0  0  0  0  0  0  0
   -2.1198    0.3521    0.3835 P   0  0  0  0  0  0  0  0  0  0  0  0
   -0.8388    1.4022    1.4242 S   0  0  0  0  0  0  0  0  0  0  0  0
   -3.6405    0.4376    0.8341 O   0  0  0  0  0  0  0  0  0  0  0  0
   -4.2294   -0.3087    1.9168 C   0  0  0  0  0  0  0  0  0  0  0  0
   -3.4618   -0.1670    3.2139 C   0  0  0  0  0  0  0  0  0  0  0  0
   -2.1809    0.9302   -1.0792 O   0  0  0  0  0  0  0  0  0  0  0  0
   -3.1221    0.5384   -2.1089 C   0  0  0  0  0  0  0  0  0  0  0  0
   -2.5003   -0.4657   -3.0602 C   0  0  0  0  0  0  0  0  0  0  0  0
    5.1911   -1.3292   -3.6937 H   0  0  0  0  0  0  0  0  0  0  0  0
    4.9386   -2.4148   -2.3154 H   0  0  0  0  0  0  0  0  0  0  0  0
    3.5995   -2.0529   -3.4117 H   0  0  0  0  0  0  0  0  0  0  0  0
    3.6001    0.3198   -2.6604 H   0  0  0  0  0  0  0  0  0  0  0  0
    4.9888   -0.0140   -1.5928 H   0  0  0  0  0  0  0  0  0  0  0  0
    3.5127    2.6606    1.4333 H   0  0  0  0  0  0  0  0  0  0  0  0
    1.7822    2.4234    1.0609 H   0  0  0  0  0  0  0  0  0  0  0  0
    2.2427    2.3344    3.5295 H   0  0  0  0  0  0  0  0  0  0  0  0
    1.5675    0.8213    2.9238 H   0  0  0  0  0  0  0  0  0  0  0  0
    3.3046    0.9373    3.2593 H   0  0  0  0  0  0  0  0  0  0  0  0
   -0.0066   -2.8112   -0.7896 H   0  0  0  0  0  0  0  0  0  0  0  0
   -0.0890   -1.0705   -1.2552 H   0  0  0  0  0  0  0  0  0  0  0  0
   -5.2336    0.1110    1.9989 H   0  0  0  0  0  0  0  0  0  0  0  0
   -4.2859   -1.3577    1.6135 H   0  0  0  0  0  0  0  0  0  0  0  0
   -3.3526    0.8823    3.4781 H   0  0  0  0  0  0  0  0  0  0  0  0
   -3.9929   -0.6853    4.0057 H   0  0  0  0  0  0  0  0  0  0  0  0
   -2.4673   -0.5998    3.1112 H   0  0  0  0  0  0  0  0  0  0  0  0
   -4.0239    0.1443   -1.6372 H   0  0  0  0  0  0  0  0  0  0  0  0
   -3.3512    1.4740   -2.6216 H   0  0  0  0  0  0  0  0  0  0  0  0
   -2.3734   -1.4320   -2.5781 H   0  0  0  0  0  0  0  0  0  0  0  0
   -3.1502   -0.5846   -3.9212 H   0  0  0  0  0  0  0  0  0  0  0  0
   -1.5313   -0.1009   -3.3948 H   0  0  0  0  0  0  0  0  0  0  0  0
  1  2  1  0  0  0  0
  2  3  1  0  0  0  0
  3  4  2  0  0  0  0
  4  5  2  0  0  0  0
  4  6  2  0  0  0  0
  6  7  1  0  0  0  0
  7  8  1  0  0  0  0
  4  9  1  0  0  0  0
  9 10  1  0  0  0  0
 10 11  1  0  0  0  0
 11 12  1  0  0  0  0
 12 13  2  0  0  0  0
 12 14  2  0  0  0  0
 14 15  1  0  0  0  0
 15 16  1  0  0  0  0
 12 17  2  0  0  0  0
 17 18  1  0  0  0  0
 18 19  1  0  0  0  0
  1 20  1  0  0  0  0
  1 21  1  0  0  0  0
  1 22  1  0  0  0  0
  2 23  1  0  0  0  0
  2 24  1  0  0  0  0
  7 25  1  0  0  0  0
  7 26  1  0  0  0  0
  8 27  1  0  0  0  0
  8 28  1  0  0  0  0
  8 29  1  0  0  0  0
 10 30  1  0  0  0  0
 10 31  1  0  0  0  0
 15 32  1  0  0  0  0
 15 33  1  0  0  0  0
 16 34  1  0  0  0  0
 16 35  1  0  0  0  0
 16 36  1  0  0  0  0
 18 37  1  0  0  0  0
 18 38  1  0  0  0  0
 19 39  1  0  0  0  0
 19 40  1  0  0  0  0
 19 41  1  0  0  0  0
M  END
