 xtb: 6.7.1 (edcfbbe)
          04092505213D

 41 40  0     0  0            999 V2000
    5.1861   -1.3424   -0.8217 C   0  0  0  0  0  0  0  0  0  0  0  0
    3.7926   -1.6653   -0.3174 C   0  0  0  0  0  0  0  0  0  0  0  0
    3.2139   -0.4801    0.2571 O   0  0  0  0  0  0  0  0  0  0  0  0
    1.7775    0.1193   -0.0882 P   0  0  0  0  0  0  0  0  0  0  0  0
    1.1475   -0.4295   -1.8632 S   0  0  0  0  0  0  0  0  0  0  0  0
    1.9809    1.6526    0.2167 O   0  0  0  0  0  0  0  0  0  0  0  0
    2.1941    2.6365   -0.8143 C   0  0  0  0  0  0  0  0  0  0  0  0
    3.5274    2.4459   -1.5062 C   0  0  0  0  0  0  0  0  0  0  0  0
    0.6799   -0.3093    1.6750 S   0  0  0  0  0  0  0  0  0  0  0  0
    0.0230   -1.9425    1.2472 C   0  0  0  0  0  0  0  0  0  0  0  0
   -1.2810   -1.9378   -0.0416 S   0  0  0  0  0  0  0  0  0  0  0  0
   -2.1288   -0.0244    0.1829 P   0  0  0  0  0  0  0  0  0  0  0  0
   -1.2631    1.6649   -0.3519 S   0  0  0  0  0  0  0  0  0  0  0  0
   -2.5628   -0.1221    1.6977 O   0  0  0  0  0  0  0  0  0  0  0  0
   -2.7983    1.0126    2.5604 C   0  0  0  0  0  0  0  0  0  0  0  0
   -2.1925    0.7189    3.9179 C   0  0  0  0  0  0  0  0  0  0  0  0
   -3.5182   -0.2163   -0.5698 O   0  0  0  0  0  0  0  0  0  0  0  0
   -3.6978    0.0823   -1.9641 C   0  0  0  0  0  0  0  0  0  0  0  0
   -2.9043   -0.8561   -2.8507 C   0  0  0  0  0  0  0  0  0  0  0  0
    5.1368   -0.6219   -1.6339 H   0  0  0  0  0  0  0  0  0  0  0  0
    5.7846   -0.9255   -0.0168 H   0  0  0  0  0  0  0  0  0  0  0  0
    5.6520   -2.2534   -1.1829 H   0  0  0  0  0  0  0  0  0  0  0  0
    3.8272   -2.4174    0.4742 H   0  0  0  0  0  0  0  0  0  0  0  0
    3.1514   -2.0141   -1.1343 H   0  0  0  0  0  0  0  0  0  0  0  0
    1.3645    2.5753   -1.5265 H   0  0  0  0  0  0  0  0  0  0  0  0
    2.1416    3.5862   -0.2800 H   0  0  0  0  0  0  0  0  0  0  0  0
    3.6876    3.2586   -2.2076 H   0  0  0  0  0  0  0  0  0  0  0  0
    4.3302    2.4325   -0.7736 H   0  0  0  0  0  0  0  0  0  0  0  0
    3.5263    1.5026   -2.0516 H   0  0  0  0  0  0  0  0  0  0  0  0
   -0.4032   -2.3419    2.1646 H   0  0  0  0  0  0  0  0  0  0  0  0
    0.8154   -2.5867    0.8698 H   0  0  0  0  0  0  0  0  0  0  0  0
   -2.3492    1.9023    2.1051 H   0  0  0  0  0  0  0  0  0  0  0  0
   -3.8803    1.1463    2.6224 H   0  0  0  0  0  0  0  0  0  0  0  0
   -1.1166    0.5884    3.8266 H   0  0  0  0  0  0  0  0  0  0  0  0
   -2.3979    1.5499    4.5847 H   0  0  0  0  0  0  0  0  0  0  0  0
   -2.6255   -0.1885    4.3281 H   0  0  0  0  0  0  0  0  0  0  0  0
   -4.7720   -0.0258   -2.1190 H   0  0  0  0  0  0  0  0  0  0  0  0
   -3.3973    1.1211   -2.1366 H   0  0  0  0  0  0  0  0  0  0  0  0
   -3.1426   -0.6602   -3.8911 H   0  0  0  0  0  0  0  0  0  0  0  0
   -1.8350   -0.6983   -2.7019 H   0  0  0  0  0  0  0  0  0  0  0  0
   -3.1380   -1.8908   -2.6122 H   0  0  0  0  0  0  0  0  0  0  0  0
  1  2  1  0  0  0  0
  2  3  1  0  0  0  0
  3  4  2  0  0  0  0
  4  5  2  0  0  0  0
  4  6  2  0  0  0  0
  6  7  1  0  0  0  0
  7  8  1  0  0  0  0
  4  9  1  0  0  0  0
  9 10  1  0  0  0  0
 10 11  1  0  0  0  0
 11 12  1  0  0  0  0
 12 13  2  0  0  0  0
 12 14  2  0  0  0  0
 14 15  1  0  0  0  0
 15 16  1  0  0  0  0
 12 17  2  0  0  0  0
 17 18  1  0  0  0  0
 18 19  1  0  0  0  0
  1 20  1  0  0  0  0
  1 21  1  0  0  0  0
  1 22  1  0  0  0  0
  2 23  1  0  0  0  0
  2 24  1  0  0  0  0
  7 25  1  0  0  0  0
  7 26  1  0  0  0  0
  8 27  1  0  0  0  0
  8 28  1  0  0  0  0
  8 29  1  0  0  0  0
 10 30  1  0  0  0  0
 10 31  1  0  0  0  0
 15 32  1  0  0  0  0
 15 33  1  0  0  0  0
 16 34  1  0  0  0  0
 16 35  1  0  0  0  0
 16 36  1  0  0  0  0
 18 37  1  0  0  0  0
 18 38  1  0  0  0  0
 19 39  1  0  0  0  0
 19 40  1  0  0  0  0
 19 41  1  0  0  0  0
M  END
