 xtb: 6.7.1 (edcfbbe)
          04092505203D

 41 40  0     0  0            999 V2000
    1.1151    0.7514    2.9571 C   0  0  0  0  0  0  0  0  0  0  0  0
    2.3500    0.8322    2.0824 C   0  0  0  0  0  0  0  0  0  0  0  0
    2.7333   -0.4578    1.5766 O   0  0  0  0  0  0  0  0  0  0  0  0
    2.1026   -1.1835    0.3067 P   0  0  0  0  0  0  0  0  0  0  0  0
    0.2850   -1.9067    0.4540 S   0  0  0  0  0  0  0  0  0  0  0  0
    3.1103   -2.3727    0.1056 O   0  0  0  0  0  0  0  0  0  0  0  0
    4.5464   -2.3093    0.2942 C   0  0  0  0  0  0  0  0  0  0  0  0
    5.2197   -1.3709   -0.6840 C   0  0  0  0  0  0  0  0  0  0  0  0
    2.3897    0.1837   -1.3072 S   0  0  0  0  0  0  0  0  0  0  0  0
    0.6817    0.5586   -1.7305 C   0  0  0  0  0  0  0  0  0  0  0  0
   -0.1292    1.6518   -0.5032 S   0  0  0  0  0  0  0  0  0  0  0  0
   -1.9954    0.6913   -0.3046 P   0  0  0  0  0  0  0  0  0  0  0  0
   -2.4520   -0.6428   -1.6730 S   0  0  0  0  0  0  0  0  0  0  0  0
   -3.0050    1.9192   -0.2364 O   0  0  0  0  0  0  0  0  0  0  0  0
   -3.3816    2.6508   -1.4186 C   0  0  0  0  0  0  0  0  0  0  0  0
   -4.6236    3.4559   -1.0929 C   0  0  0  0  0  0  0  0  0  0  0  0
   -1.9907    0.2527    1.2133 O   0  0  0  0  0  0  0  0  0  0  0  0
   -2.8171   -0.8184    1.7077 C   0  0  0  0  0  0  0  0  0  0  0  0
   -4.2876   -0.4679    1.6375 C   0  0  0  0  0  0  0  0  0  0  0  0
    0.9114    1.7301    3.3793 H   0  0  0  0  0  0  0  0  0  0  0  0
    0.2523    0.4372    2.3725 H   0  0  0  0  0  0  0  0  0  0  0  0
    1.2683    0.0344    3.7593 H   0  0  0  0  0  0  0  0  0  0  0  0
    3.2193    1.1560    2.6581 H   0  0  0  0  0  0  0  0  0  0  0  0
    2.1892    1.5164    1.2430 H   0  0  0  0  0  0  0  0  0  0  0  0
    4.7413   -2.0110    1.3255 H   0  0  0  0  0  0  0  0  0  0  0  0
    4.8597   -3.3430    0.1401 H   0  0  0  0  0  0  0  0  0  0  0  0
    6.2957   -1.4430   -0.5589 H   0  0  0  0  0  0  0  0  0  0  0  0
    4.9594   -1.6365   -1.7052 H   0  0  0  0  0  0  0  0  0  0  0  0
    4.9103   -0.3430   -0.5026 H   0  0  0  0  0  0  0  0  0  0  0  0
    0.0992   -0.3630   -1.8066 H   0  0  0  0  0  0  0  0  0  0  0  0
    0.7202    1.0803   -2.6833 H   0  0  0  0  0  0  0  0  0  0  0  0
   -2.5476    3.3008   -1.6984 H   0  0  0  0  0  0  0  0  0  0  0  0
   -3.5657    1.9350   -2.2273 H   0  0  0  0  0  0  0  0  0  0  0  0
   -4.9063    4.0411   -1.9617 H   0  0  0  0  0  0  0  0  0  0  0  0
   -5.4410    2.7922   -0.8260 H   0  0  0  0  0  0  0  0  0  0  0  0
   -4.4233    4.1212   -0.2583 H   0  0  0  0  0  0  0  0  0  0  0  0
   -2.5940   -1.7209    1.1284 H   0  0  0  0  0  0  0  0  0  0  0  0
   -2.4770   -0.9567    2.7349 H   0  0  0  0  0  0  0  0  0  0  0  0
   -4.8696   -1.2626    2.0933 H   0  0  0  0  0  0  0  0  0  0  0  0
   -4.4733    0.4676    2.1586 H   0  0  0  0  0  0  0  0  0  0  0  0
   -4.5902   -0.3592    0.5964 H   0  0  0  0  0  0  0  0  0  0  0  0
  1  2  1  0  0  0  0
  2  3  1  0  0  0  0
  3  4  2  0  0  0  0
  4  5  2  0  0  0  0
  4  6  2  0  0  0  0
  6  7  1  0  0  0  0
  7  8  1  0  0  0  0
  4  9  1  0  0  0  0
  9 10  1  0  0  0  0
 10 11  1  0  0  0  0
 11 12  1  0  0  0  0
 12 13  2  0  0  0  0
 12 14  2  0  0  0  0
 14 15  1  0  0  0  0
 15 16  1  0  0  0  0
 12 17  2  0  0  0  0
 17 18  1  0  0  0  0
 18 19  1  0  0  0  0
  1 20  1  0  0  0  0
  1 21  1  0  0  0  0
  1 22  1  0  0  0  0
  2 23  1  0  0  0  0
  2 24  1  0  0  0  0
  7 25  1  0  0  0  0
  7 26  1  0  0  0  0
  8 27  1  0  0  0  0
  8 28  1  0  0  0  0
  8 29  1  0  0  0  0
 10 30  1  0  0  0  0
 10 31  1  0  0  0  0
 15 32  1  0  0  0  0
 15 33  1  0  0  0  0
 16 34  1  0  0  0  0
 16 35  1  0  0  0  0
 16 36  1  0  0  0  0
 18 37  1  0  0  0  0
 18 38  1  0  0  0  0
 19 39  1  0  0  0  0
 19 40  1  0  0  0  0
 19 41  1  0  0  0  0
M  END
