 xtb: 6.7.1 (edcfbbe)
          04092505203D

 41 40  0     0  0            999 V2000
    1.3717   -2.0907    2.7760 C   0  0  0  0  0  0  0  0  0  0  0  0
    2.0808   -0.7519    2.7351 C   0  0  0  0  0  0  0  0  0  0  0  0
    1.6442    0.0198    1.5877 O   0  0  0  0  0  0  0  0  0  0  0  0
    2.4752    0.0487    0.2398 P   0  0  0  0  0  0  0  0  0  0  0  0
    3.3066   -1.6391   -0.3267 S   0  0  0  0  0  0  0  0  0  0  0  0
    3.5139    1.2142    0.5436 O   0  0  0  0  0  0  0  0  0  0  0  0
    4.6979    1.4144   -0.2478 C   0  0  0  0  0  0  0  0  0  0  0  0
    4.3712    1.9051   -1.6434 C   0  0  0  0  0  0  0  0  0  0  0  0
    1.0405    0.8959   -1.0542 S   0  0  0  0  0  0  0  0  0  0  0  0
    0.2256   -0.6702   -1.4751 C   0  0  0  0  0  0  0  0  0  0  0  0
   -0.9176   -1.2261   -0.1959 S   0  0  0  0  0  0  0  0  0  0  0  0
   -2.3880    0.2912   -0.5212 P   0  0  0  0  0  0  0  0  0  0  0  0
   -2.5949    0.7802   -2.4069 S   0  0  0  0  0  0  0  0  0  0  0  0
   -2.0436    1.5429    0.3687 O   0  0  0  0  0  0  0  0  0  0  0  0
   -2.3222    1.6903    1.7839 C   0  0  0  0  0  0  0  0  0  0  0  0
   -1.6132    0.6516    2.6257 C   0  0  0  0  0  0  0  0  0  0  0  0
   -3.6811   -0.2968    0.1857 O   0  0  0  0  0  0  0  0  0  0  0  0
   -4.4111   -1.3950   -0.4021 C   0  0  0  0  0  0  0  0  0  0  0  0
   -5.7848   -1.4339    0.2358 C   0  0  0  0  0  0  0  0  0  0  0  0
    1.6522   -2.6148    3.6838 H   0  0  0  0  0  0  0  0  0  0  0  0
    0.2953   -1.9475    2.7566 H   0  0  0  0  0  0  0  0  0  0  0  0
    1.6556   -2.6928    1.9157 H   0  0  0  0  0  0  0  0  0  0  0  0
    3.1650   -0.8833    2.6876 H   0  0  0  0  0  0  0  0  0  0  0  0
    1.8245   -0.1344    3.5972 H   0  0  0  0  0  0  0  0  0  0  0  0
    5.2697    2.1521    0.3166 H   0  0  0  0  0  0  0  0  0  0  0  0
    5.2481    0.4688   -0.2922 H   0  0  0  0  0  0  0  0  0  0  0  0
    3.7378    2.7875   -1.5958 H   0  0  0  0  0  0  0  0  0  0  0  0
    5.2914    2.1484   -2.1648 H   0  0  0  0  0  0  0  0  0  0  0  0
    3.8458    1.1284   -2.1982 H   0  0  0  0  0  0  0  0  0  0  0  0
    0.9784   -1.4496   -1.5996 H   0  0  0  0  0  0  0  0  0  0  0  0
   -0.3280   -0.4968   -2.3986 H   0  0  0  0  0  0  0  0  0  0  0  0
   -1.9635    2.6978    2.0006 H   0  0  0  0  0  0  0  0  0  0  0  0
   -3.4034    1.6397    1.9234 H   0  0  0  0  0  0  0  0  0  0  0  0
   -0.5469    0.6625    2.4133 H   0  0  0  0  0  0  0  0  0  0  0  0
   -1.7725    0.8764    3.6758 H   0  0  0  0  0  0  0  0  0  0  0  0
   -2.0064   -0.3402    2.4099 H   0  0  0  0  0  0  0  0  0  0  0  0
   -4.4739   -1.2322   -1.4829 H   0  0  0  0  0  0  0  0  0  0  0  0
   -3.8525   -2.3147   -0.2102 H   0  0  0  0  0  0  0  0  0  0  0  0
   -6.3466   -2.2623   -0.1831 H   0  0  0  0  0  0  0  0  0  0  0  0
   -5.6942   -1.5678    1.3097 H   0  0  0  0  0  0  0  0  0  0  0  0
   -6.3149   -0.5065    0.0382 H   0  0  0  0  0  0  0  0  0  0  0  0
  1  2  1  0  0  0  0
  2  3  1  0  0  0  0
  3  4  2  0  0  0  0
  4  5  2  0  0  0  0
  4  6  2  0  0  0  0
  6  7  1  0  0  0  0
  7  8  1  0  0  0  0
  4  9  1  0  0  0  0
  9 10  1  0  0  0  0
 10 11  1  0  0  0  0
 11 12  1  0  0  0  0
 12 13  2  0  0  0  0
 12 14  2  0  0  0  0
 14 15  1  0  0  0  0
 15 16  1  0  0  0  0
 12 17  2  0  0  0  0
 17 18  1  0  0  0  0
 18 19  1  0  0  0  0
  1 20  1  0  0  0  0
  1 21  1  0  0  0  0
  1 22  1  0  0  0  0
  2 23  1  0  0  0  0
  2 24  1  0  0  0  0
  7 25  1  0  0  0  0
  7 26  1  0  0  0  0
  8 27  1  0  0  0  0
  8 28  1  0  0  0  0
  8 29  1  0  0  0  0
 10 30  1  0  0  0  0
 10 31  1  0  0  0  0
 15 32  1  0  0  0  0
 15 33  1  0  0  0  0
 16 34  1  0  0  0  0
 16 35  1  0  0  0  0
 16 36  1  0  0  0  0
 18 37  1  0  0  0  0
 18 38  1  0  0  0  0
 19 39  1  0  0  0  0
 19 40  1  0  0  0  0
 19 41  1  0  0  0  0
M  END
