 xtb: 6.7.1 (edcfbbe)
          04092505213D

 41 40  0     0  0            999 V2000
    4.9365   -1.3508   -1.4027 C   0  0  0  0  0  0  0  0  0  0  0  0
    4.8604   -0.0348   -0.6567 C   0  0  0  0  0  0  0  0  0  0  0  0
    3.7428    0.0026    0.2472 O   0  0  0  0  0  0  0  0  0  0  0  0
    2.2455    0.1228   -0.2655 P   0  0  0  0  0  0  0  0  0  0  0  0
    2.0180    1.2583   -1.8562 S   0  0  0  0  0  0  0  0  0  0  0  0
    1.4763    0.4774    1.0754 O   0  0  0  0  0  0  0  0  0  0  0  0
    1.8807    1.5148    1.9970 C   0  0  0  0  0  0  0  0  0  0  0  0
    1.9993    2.8695    1.3326 C   0  0  0  0  0  0  0  0  0  0  0  0
    1.5867   -1.8666   -0.5244 S   0  0  0  0  0  0  0  0  0  0  0  0
   -0.0756   -1.5299   -1.1693 C   0  0  0  0  0  0  0  0  0  0  0  0
   -1.3512   -1.7617    0.1059 S   0  0  0  0  0  0  0  0  0  0  0  0
   -2.3200    0.1377    0.0278 P   0  0  0  0  0  0  0  0  0  0  0  0
   -1.2353    1.7202   -0.3419 S   0  0  0  0  0  0  0  0  0  0  0  0
   -3.1456    0.1767    1.3858 O   0  0  0  0  0  0  0  0  0  0  0  0
   -2.5798    0.6794    2.6096 C   0  0  0  0  0  0  0  0  0  0  0  0
   -1.5390   -0.2584    3.1878 C   0  0  0  0  0  0  0  0  0  0  0  0
   -3.4361   -0.0368   -1.0740 O   0  0  0  0  0  0  0  0  0  0  0  0
   -4.4218   -1.0991   -1.0791 C   0  0  0  0  0  0  0  0  0  0  0  0
   -5.6849   -0.6772   -0.3572 C   0  0  0  0  0  0  0  0  0  0  0  0
    4.9139   -2.1829   -0.7039 H   0  0  0  0  0  0  0  0  0  0  0  0
    4.0897   -1.4410   -2.0815 H   0  0  0  0  0  0  0  0  0  0  0  0
    5.8556   -1.3851   -1.9785 H   0  0  0  0  0  0  0  0  0  0  0  0
    4.7662    0.8003   -1.3586 H   0  0  0  0  0  0  0  0  0  0  0  0
    5.7262    0.1151   -0.0104 H   0  0  0  0  0  0  0  0  0  0  0  0
    1.0894    1.5122    2.7487 H   0  0  0  0  0  0  0  0  0  0  0  0
    2.8283    1.2124    2.4478 H   0  0  0  0  0  0  0  0  0  0  0  0
    1.0726    3.1156    0.8164 H   0  0  0  0  0  0  0  0  0  0  0  0
    2.2060    3.6255    2.0832 H   0  0  0  0  0  0  0  0  0  0  0  0
    2.8060    2.8617    0.6004 H   0  0  0  0  0  0  0  0  0  0  0  0
   -0.2592   -2.2451   -1.9662 H   0  0  0  0  0  0  0  0  0  0  0  0
   -0.1136   -0.5012   -1.5387 H   0  0  0  0  0  0  0  0  0  0  0  0
   -2.1481    1.6653    2.4086 H   0  0  0  0  0  0  0  0  0  0  0  0
   -3.4401    0.7804    3.2730 H   0  0  0  0  0  0  0  0  0  0  0  0
   -0.6588   -0.2871    2.5473 H   0  0  0  0  0  0  0  0  0  0  0  0
   -1.2485    0.0933    4.1728 H   0  0  0  0  0  0  0  0  0  0  0  0
   -1.9419   -1.2647    3.2693 H   0  0  0  0  0  0  0  0  0  0  0  0
   -4.6115   -1.2803   -2.1386 H   0  0  0  0  0  0  0  0  0  0  0  0
   -3.9821   -1.9898   -0.6211 H   0  0  0  0  0  0  0  0  0  0  0  0
   -6.4291   -1.4606   -0.4611 H   0  0  0  0  0  0  0  0  0  0  0  0
   -5.4816   -0.5127    0.6972 H   0  0  0  0  0  0  0  0  0  0  0  0
   -6.0702    0.2429   -0.7882 H   0  0  0  0  0  0  0  0  0  0  0  0
  1  2  1  0  0  0  0
  2  3  1  0  0  0  0
  3  4  2  0  0  0  0
  4  5  2  0  0  0  0
  4  6  2  0  0  0  0
  6  7  1  0  0  0  0
  7  8  1  0  0  0  0
  4  9  1  0  0  0  0
  9 10  1  0  0  0  0
 10 11  1  0  0  0  0
 11 12  1  0  0  0  0
 12 13  2  0  0  0  0
 12 14  2  0  0  0  0
 14 15  1  0  0  0  0
 15 16  1  0  0  0  0
 12 17  2  0  0  0  0
 17 18  1  0  0  0  0
 18 19  1  0  0  0  0
  1 20  1  0  0  0  0
  1 21  1  0  0  0  0
  1 22  1  0  0  0  0
  2 23  1  0  0  0  0
  2 24  1  0  0  0  0
  7 25  1  0  0  0  0
  7 26  1  0  0  0  0
  8 27  1  0  0  0  0
  8 28  1  0  0  0  0
  8 29  1  0  0  0  0
 10 30  1  0  0  0  0
 10 31  1  0  0  0  0
 15 32  1  0  0  0  0
 15 33  1  0  0  0  0
 16 34  1  0  0  0  0
 16 35  1  0  0  0  0
 16 36  1  0  0  0  0
 18 37  1  0  0  0  0
 18 38  1  0  0  0  0
 19 39  1  0  0  0  0
 19 40  1  0  0  0  0
 19 41  1  0  0  0  0
M  END
