 xtb: 6.7.1 (edcfbbe)
          04092505213D

 41 40  0     0  0            999 V2000
    4.1004   -0.5961   -2.1282 C   0  0  0  0  0  0  0  0  0  0  0  0
    4.4870    0.1978   -0.8971 C   0  0  0  0  0  0  0  0  0  0  0  0
    3.3409    0.7263   -0.1837 O   0  0  0  0  0  0  0  0  0  0  0  0
    2.2942   -0.1103    0.6505 P   0  0  0  0  0  0  0  0  0  0  0  0
    1.4883    1.0387    2.0182 S   0  0  0  0  0  0  0  0  0  0  0  0
    3.1564   -1.3490    1.1403 O   0  0  0  0  0  0  0  0  0  0  0  0
    2.6044   -2.5867    1.6272 C   0  0  0  0  0  0  0  0  0  0  0  0
    1.8707   -2.4164    2.9413 C   0  0  0  0  0  0  0  0  0  0  0  0
    0.9262   -1.0064   -0.7366 S   0  0  0  0  0  0  0  0  0  0  0  0
    0.4145    0.5163   -1.5697 C   0  0  0  0  0  0  0  0  0  0  0  0
   -0.7188    1.5544   -0.6124 S   0  0  0  0  0  0  0  0  0  0  0  0
   -2.4907    0.3701   -0.7886 P   0  0  0  0  0  0  0  0  0  0  0  0
   -2.4354   -0.9725   -2.2107 S   0  0  0  0  0  0  0  0  0  0  0  0
   -3.6798    1.3675   -1.0552 O   0  0  0  0  0  0  0  0  0  0  0  0
   -4.2778    2.2649   -0.0892 C   0  0  0  0  0  0  0  0  0  0  0  0
   -3.3111    3.3233    0.3984 C   0  0  0  0  0  0  0  0  0  0  0  0
   -2.8273   -0.1055    0.6950 O   0  0  0  0  0  0  0  0  0  0  0  0
   -1.9678   -0.8744    1.5499 C   0  0  0  0  0  0  0  0  0  0  0  0
   -1.9115   -2.3331    1.1428 C   0  0  0  0  0  0  0  0  0  0  0  0
    3.4814    0.0009   -2.7937 H   0  0  0  0  0  0  0  0  0  0  0  0
    5.0049   -0.8836   -2.6555 H   0  0  0  0  0  0  0  0  0  0  0  0
    3.5551   -1.4953   -1.8511 H   0  0  0  0  0  0  0  0  0  0  0  0
    5.0486    1.0957   -1.1603 H   0  0  0  0  0  0  0  0  0  0  0  0
    5.0674   -0.4135   -0.2050 H   0  0  0  0  0  0  0  0  0  0  0  0
    1.9408   -2.9947    0.8594 H   0  0  0  0  0  0  0  0  0  0  0  0
    3.4788   -3.2303    1.7405 H   0  0  0  0  0  0  0  0  0  0  0  0
    2.5243   -1.9640    3.6827 H   0  0  0  0  0  0  0  0  0  0  0  0
    1.0049   -1.7707    2.8090 H   0  0  0  0  0  0  0  0  0  0  0  0
    1.5417   -3.3875    3.2969 H   0  0  0  0  0  0  0  0  0  0  0  0
   -0.0823    0.1962   -2.4858 H   0  0  0  0  0  0  0  0  0  0  0  0
    1.2853    1.1342   -1.7762 H   0  0  0  0  0  0  0  0  0  0  0  0
   -5.1075    2.7061   -0.6438 H   0  0  0  0  0  0  0  0  0  0  0  0
   -4.6595    1.6691    0.7417 H   0  0  0  0  0  0  0  0  0  0  0  0
   -2.8832    3.8637   -0.4424 H   0  0  0  0  0  0  0  0  0  0  0  0
   -3.8417    4.0211    1.0389 H   0  0  0  0  0  0  0  0  0  0  0  0
   -2.5012    2.8708    0.9696 H   0  0  0  0  0  0  0  0  0  0  0  0
   -0.9710   -0.4189    1.5546 H   0  0  0  0  0  0  0  0  0  0  0  0
   -2.4126   -0.7564    2.5402 H   0  0  0  0  0  0  0  0  0  0  0  0
   -1.3326   -2.8867    1.8751 H   0  0  0  0  0  0  0  0  0  0  0  0
   -2.9169   -2.7431    1.0936 H   0  0  0  0  0  0  0  0  0  0  0  0
   -1.4456   -2.4408    0.1652 H   0  0  0  0  0  0  0  0  0  0  0  0
  1  2  1  0  0  0  0
  2  3  1  0  0  0  0
  3  4  2  0  0  0  0
  4  5  2  0  0  0  0
  4  6  2  0  0  0  0
  6  7  1  0  0  0  0
  7  8  1  0  0  0  0
  4  9  1  0  0  0  0
  9 10  1  0  0  0  0
 10 11  1  0  0  0  0
 11 12  1  0  0  0  0
 12 13  2  0  0  0  0
 12 14  2  0  0  0  0
 14 15  1  0  0  0  0
 15 16  1  0  0  0  0
 12 17  2  0  0  0  0
 17 18  1  0  0  0  0
 18 19  1  0  0  0  0
  1 20  1  0  0  0  0
  1 21  1  0  0  0  0
  1 22  1  0  0  0  0
  2 23  1  0  0  0  0
  2 24  1  0  0  0  0
  7 25  1  0  0  0  0
  7 26  1  0  0  0  0
  8 27  1  0  0  0  0
  8 28  1  0  0  0  0
  8 29  1  0  0  0  0
 10 30  1  0  0  0  0
 10 31  1  0  0  0  0
 15 32  1  0  0  0  0
 15 33  1  0  0  0  0
 16 34  1  0  0  0  0
 16 35  1  0  0  0  0
 16 36  1  0  0  0  0
 18 37  1  0  0  0  0
 18 38  1  0  0  0  0
 19 39  1  0  0  0  0
 19 40  1  0  0  0  0
 19 41  1  0  0  0  0
M  END
