 xtb: 6.7.1 (edcfbbe)
          04092505213D

 41 40  0     0  0            999 V2000
    4.3505    2.5240   -1.3869 C   0  0  0  0  0  0  0  0  0  0  0  0
    3.0312    1.9676   -0.8924 C   0  0  0  0  0  0  0  0  0  0  0  0
    3.3162    0.8101   -0.0814 O   0  0  0  0  0  0  0  0  0  0  0  0
    2.1915    0.1564    0.8319 P   0  0  0  0  0  0  0  0  0  0  0  0
    1.2356    1.4039    1.9925 S   0  0  0  0  0  0  0  0  0  0  0  0
    2.9866   -0.9183    1.6608 O   0  0  0  0  0  0  0  0  0  0  0  0
    3.9774   -1.8262    1.1066 C   0  0  0  0  0  0  0  0  0  0  0  0
    3.3974   -3.2150    0.9269 C   0  0  0  0  0  0  0  0  0  0  0  0
    1.0441   -0.9105   -0.6275 S   0  0  0  0  0  0  0  0  0  0  0  0
   -0.0964   -1.7415    0.5107 C   0  0  0  0  0  0  0  0  0  0  0  0
   -1.4253   -0.6816    1.1390 S   0  0  0  0  0  0  0  0  0  0  0  0
   -2.1992   -0.1060   -0.7656 P   0  0  0  0  0  0  0  0  0  0  0  0
   -2.1021   -1.4509   -2.1797 S   0  0  0  0  0  0  0  0  0  0  0  0
   -1.4126    1.1877   -1.2114 O   0  0  0  0  0  0  0  0  0  0  0  0
   -1.3560    2.4086   -0.4368 C   0  0  0  0  0  0  0  0  0  0  0  0
   -2.3586    3.4173   -0.9564 C   0  0  0  0  0  0  0  0  0  0  0  0
   -3.6224    0.4915   -0.3893 O   0  0  0  0  0  0  0  0  0  0  0  0
   -4.6194   -0.1709    0.4119 C   0  0  0  0  0  0  0  0  0  0  0  0
   -4.9384   -1.5672   -0.0788 C   0  0  0  0  0  0  0  0  0  0  0  0
    4.1600    3.4006   -1.9972 H   0  0  0  0  0  0  0  0  0  0  0  0
    4.9756    2.8020   -0.5432 H   0  0  0  0  0  0  0  0  0  0  0  0
    4.8700    1.7784   -1.9816 H   0  0  0  0  0  0  0  0  0  0  0  0
    2.3901    1.6564   -1.7227 H   0  0  0  0  0  0  0  0  0  0  0  0
    2.4936    2.6959   -0.2757 H   0  0  0  0  0  0  0  0  0  0  0  0
    4.3445   -1.4203    0.1634 H   0  0  0  0  0  0  0  0  0  0  0  0
    4.7797   -1.8258    1.8460 H   0  0  0  0  0  0  0  0  0  0  0  0
    2.6353   -3.2195    0.1512 H   0  0  0  0  0  0  0  0  0  0  0  0
    4.1948   -3.8920    0.6366 H   0  0  0  0  0  0  0  0  0  0  0  0
    2.9606   -3.5627    1.8593 H   0  0  0  0  0  0  0  0  0  0  0  0
    0.4438   -2.1051    1.3825 H   0  0  0  0  0  0  0  0  0  0  0  0
   -0.5360   -2.5589   -0.0601 H   0  0  0  0  0  0  0  0  0  0  0  0
   -1.5270    2.1775    0.6189 H   0  0  0  0  0  0  0  0  0  0  0  0
   -0.3311    2.7672   -0.5571 H   0  0  0  0  0  0  0  0  0  0  0  0
   -2.2503    4.3420   -0.3985 H   0  0  0  0  0  0  0  0  0  0  0  0
   -2.1792    3.6076   -2.0110 H   0  0  0  0  0  0  0  0  0  0  0  0
   -3.3699    3.0387   -0.8355 H   0  0  0  0  0  0  0  0  0  0  0  0
   -4.2628   -0.1953    1.4455 H   0  0  0  0  0  0  0  0  0  0  0  0
   -5.4876    0.4861    0.3354 H   0  0  0  0  0  0  0  0  0  0  0  0
   -5.2212   -1.5451   -1.1286 H   0  0  0  0  0  0  0  0  0  0  0  0
   -4.0669   -2.2115    0.0276 H   0  0  0  0  0  0  0  0  0  0  0  0
   -5.7554   -1.9763    0.5066 H   0  0  0  0  0  0  0  0  0  0  0  0
  1  2  1  0  0  0  0
  2  3  1  0  0  0  0
  3  4  2  0  0  0  0
  4  5  2  0  0  0  0
  4  6  2  0  0  0  0
  6  7  1  0  0  0  0
  7  8  1  0  0  0  0
  4  9  1  0  0  0  0
  9 10  1  0  0  0  0
 10 11  1  0  0  0  0
 11 12  1  0  0  0  0
 12 13  2  0  0  0  0
 12 14  2  0  0  0  0
 14 15  1  0  0  0  0
 15 16  1  0  0  0  0
 12 17  2  0  0  0  0
 17 18  1  0  0  0  0
 18 19  1  0  0  0  0
  1 20  1  0  0  0  0
  1 21  1  0  0  0  0
  1 22  1  0  0  0  0
  2 23  1  0  0  0  0
  2 24  1  0  0  0  0
  7 25  1  0  0  0  0
  7 26  1  0  0  0  0
  8 27  1  0  0  0  0
  8 28  1  0  0  0  0
  8 29  1  0  0  0  0
 10 30  1  0  0  0  0
 10 31  1  0  0  0  0
 15 32  1  0  0  0  0
 15 33  1  0  0  0  0
 16 34  1  0  0  0  0
 16 35  1  0  0  0  0
 16 36  1  0  0  0  0
 18 37  1  0  0  0  0
 18 38  1  0  0  0  0
 19 39  1  0  0  0  0
 19 40  1  0  0  0  0
 19 41  1  0  0  0  0
M  END
