 xtb: 6.7.1 (edcfbbe)
          04092505203D

 41 40  0     0  0            999 V2000
    3.9560    1.0340   -1.7856 C   0  0  0  0  0  0  0  0  0  0  0  0
    2.5703    0.4346   -1.9024 C   0  0  0  0  0  0  0  0  0  0  0  0
    2.3183   -0.5074   -0.8503 O   0  0  0  0  0  0  0  0  0  0  0  0
    1.9792   -0.0429    0.6439 P   0  0  0  0  0  0  0  0  0  0  0  0
    1.0131    1.6563    0.7571 S   0  0  0  0  0  0  0  0  0  0  0  0
    3.3258    0.0791    1.4701 O   0  0  0  0  0  0  0  0  0  0  0  0
    4.1307   -1.0189    1.9615 C   0  0  0  0  0  0  0  0  0  0  0  0
    4.7543   -1.8291    0.8447 C   0  0  0  0  0  0  0  0  0  0  0  0
    1.1233   -1.8166    1.3742 S   0  0  0  0  0  0  0  0  0  0  0  0
   -0.4126   -1.8616    0.4145 C   0  0  0  0  0  0  0  0  0  0  0  0
   -1.6876   -0.7191    1.0287 S   0  0  0  0  0  0  0  0  0  0  0  0
   -2.0239    0.4819   -0.7029 P   0  0  0  0  0  0  0  0  0  0  0  0
   -0.8791    0.0777   -2.2379 S   0  0  0  0  0  0  0  0  0  0  0  0
   -1.9410    1.9931   -0.2748 O   0  0  0  0  0  0  0  0  0  0  0  0
   -2.9294    2.7143    0.4981 C   0  0  0  0  0  0  0  0  0  0  0  0
   -3.1104    2.1396    1.8863 C   0  0  0  0  0  0  0  0  0  0  0  0
   -3.5865    0.3343   -0.9923 O   0  0  0  0  0  0  0  0  0  0  0  0
   -4.1435   -0.7065   -1.8124 C   0  0  0  0  0  0  0  0  0  0  0  0
   -3.9437   -2.0872   -1.2213 C   0  0  0  0  0  0  0  0  0  0  0  0
    4.0426    1.5713   -0.8412 H   0  0  0  0  0  0  0  0  0  0  0  0
    4.7091    0.2517   -1.8229 H   0  0  0  0  0  0  0  0  0  0  0  0
    4.1166    1.7282   -2.6045 H   0  0  0  0  0  0  0  0  0  0  0  0
    2.4436   -0.1436   -2.8191 H   0  0  0  0  0  0  0  0  0  0  0  0
    1.8047    1.2174   -1.8661 H   0  0  0  0  0  0  0  0  0  0  0  0
    4.8878   -0.5203    2.5690 H   0  0  0  0  0  0  0  0  0  0  0  0
    3.5027   -1.6481    2.5970 H   0  0  0  0  0  0  0  0  0  0  0  0
    5.3716   -2.6097    1.2783 H   0  0  0  0  0  0  0  0  0  0  0  0
    3.9801   -2.2879    0.2336 H   0  0  0  0  0  0  0  0  0  0  0  0
    5.3724   -1.1931    0.2165 H   0  0  0  0  0  0  0  0  0  0  0  0
   -0.7870   -2.8757    0.5287 H   0  0  0  0  0  0  0  0  0  0  0  0
   -0.1995   -1.6245   -0.6320 H   0  0  0  0  0  0  0  0  0  0  0  0
   -2.5205    3.7253    0.5336 H   0  0  0  0  0  0  0  0  0  0  0  0
   -3.8690    2.7065   -0.0584 H   0  0  0  0  0  0  0  0  0  0  0  0
   -3.5418    1.1410    1.8308 H   0  0  0  0  0  0  0  0  0  0  0  0
   -2.1499    2.0802    2.3937 H   0  0  0  0  0  0  0  0  0  0  0  0
   -3.7758    2.7825    2.4539 H   0  0  0  0  0  0  0  0  0  0  0  0
   -5.2009   -0.4450   -1.8747 H   0  0  0  0  0  0  0  0  0  0  0  0
   -3.6857   -0.6441   -2.8045 H   0  0  0  0  0  0  0  0  0  0  0  0
   -4.2841   -2.1122   -0.1893 H   0  0  0  0  0  0  0  0  0  0  0  0
   -4.5074   -2.8081   -1.8047 H   0  0  0  0  0  0  0  0  0  0  0  0
   -2.8891   -2.3558   -1.2554 H   0  0  0  0  0  0  0  0  0  0  0  0
  1  2  1  0  0  0  0
  2  3  1  0  0  0  0
  3  4  1  0  0  0  0
  4  5  2  0  0  0  0
  4  6  2  0  0  0  0
  6  7  1  0  0  0  0
  7  8  1  0  0  0  0
  4  9  1  0  0  0  0
  9 10  1  0  0  0  0
 10 11  1  0  0  0  0
 11 12  1  0  0  0  0
 12 13  2  0  0  0  0
 12 14  2  0  0  0  0
 14 15  1  0  0  0  0
 15 16  1  0  0  0  0
 12 17  2  0  0  0  0
 17 18  1  0  0  0  0
 18 19  1  0  0  0  0
  1 20  1  0  0  0  0
  1 21  1  0  0  0  0
  1 22  1  0  0  0  0
  2 23  1  0  0  0  0
  2 24  1  0  0  0  0
  7 25  1  0  0  0  0
  7 26  1  0  0  0  0
  8 27  1  0  0  0  0
  8 28  1  0  0  0  0
  8 29  1  0  0  0  0
 10 30  1  0  0  0  0
 10 31  1  0  0  0  0
 15 32  1  0  0  0  0
 15 33  1  0  0  0  0
 16 34  1  0  0  0  0
 16 35  1  0  0  0  0
 16 36  1  0  0  0  0
 18 37  1  0  0  0  0
 18 38  1  0  0  0  0
 19 39  1  0  0  0  0
 19 40  1  0  0  0  0
 19 41  1  0  0  0  0
M  END
