 xtb: 6.7.1 (edcfbbe)
          04092507313D

 38 37  0     0  0            999 V2000
    5.3326   -0.5970   -0.1911 C   0  0  0  0  0  0  0  0  0  0  0  0
    4.8506   -1.3016   -1.4488 C   0  0  0  0  0  0  0  0  0  0  0  0
    3.4954   -1.7653   -1.2867 O   0  0  0  0  0  0  0  0  0  0  0  0
    2.5110   -0.9423   -1.5828 C   0  0  0  0  0  0  0  0  0  0  0  0
    2.6527    0.1808   -2.0124 O   0  0  0  0  0  0  0  0  0  0  0  0
    1.1598   -1.5964   -1.3516 C   0  0  0  0  0  0  0  0  0  0  0  0
    0.2060   -0.5784   -0.7432 C   0  0  0  0  0  0  0  0  0  0  0  0
    0.2509    0.3545   -1.3218 H   0  0  0  0  0  0  0  0  0  0  0  0
    0.5406   -0.2228    0.6900 C   0  0  0  0  0  0  0  0  0  0  0  0
   -0.3269   -0.0222    1.5176 O   0  0  0  0  0  0  0  0  0  0  0  0
    1.8234   -0.1533    0.9116 O   0  0  0  0  0  0  0  0  0  0  0  0
    2.2655    0.3131    2.2072 C   0  0  0  0  0  0  0  0  0  0  0  0
    2.3240    1.8309    2.2312 C   0  0  0  0  0  0  0  0  0  0  0  0
   -1.5164   -1.1683   -0.7627 S   0  0  0  0  0  0  0  0  0  0  0  0
   -2.4329    0.5765    0.0641 P   0  0  0  0  0  0  0  0  0  0  0  0
   -1.4955    2.2951    0.0225 S   0  0  0  0  0  0  0  0  0  0  0  0
   -3.6944    0.7092   -0.8995 O   0  0  0  0  0  0  0  0  0  0  0  0
   -4.6462   -0.3505   -1.0943 C   0  0  0  0  0  0  0  0  0  0  0  0
   -3.1914    0.1565    1.4051 O   0  0  0  0  0  0  0  0  0  0  0  0
   -2.7639    0.3395    2.7543 C   0  0  0  0  0  0  0  0  0  0  0  0
    5.2599   -1.2657    0.6620 H   0  0  0  0  0  0  0  0  0  0  0  0
    6.3659   -0.2934   -0.3220 H   0  0  0  0  0  0  0  0  0  0  0  0
    4.7243    0.2855   -0.0071 H   0  0  0  0  0  0  0  0  0  0  0  0
    5.4276   -2.2048   -1.6473 H   0  0  0  0  0  0  0  0  0  0  0  0
    4.8877   -0.6270   -2.3087 H   0  0  0  0  0  0  0  0  0  0  0  0
    1.2790   -2.4700   -0.7129 H   0  0  0  0  0  0  0  0  0  0  0  0
    0.7654   -1.9151   -2.3186 H   0  0  0  0  0  0  0  0  0  0  0  0
    1.5753   -0.0638    2.9661 H   0  0  0  0  0  0  0  0  0  0  0  0
    3.2537   -0.1291    2.3318 H   0  0  0  0  0  0  0  0  0  0  0  0
    2.6860    2.1630    3.1983 H   0  0  0  0  0  0  0  0  0  0  0  0
    2.9892    2.1954    1.4528 H   0  0  0  0  0  0  0  0  0  0  0  0
    1.3337    2.2496    2.0589 H   0  0  0  0  0  0  0  0  0  0  0  0
   -5.2963   -0.0055   -1.8942 H   0  0  0  0  0  0  0  0  0  0  0  0
   -5.2109   -0.5136   -0.1783 H   0  0  0  0  0  0  0  0  0  0  0  0
   -4.1302   -1.2664   -1.3853 H   0  0  0  0  0  0  0  0  0  0  0  0
   -3.6771    0.4435    3.3365 H   0  0  0  0  0  0  0  0  0  0  0  0
   -2.1508    1.2363    2.8396 H   0  0  0  0  0  0  0  0  0  0  0  0
   -2.1917   -0.5276    3.0777 H   0  0  0  0  0  0  0  0  0  0  0  0
  1  2  1  0  0  0  0
  2  3  1  0  0  0  0
  3  4  1  0  0  0  0
  4  5  2  0  0  0  0
  4  6  1  0  0  0  0
  6  7  1  0  0  0  0
  7  8  1  0  0  0  0
  7  9  1  0  0  0  0
  9 10  2  0  0  0  0
  9 11  4  0  0  0  0
 11 12  1  0  0  0  0
 12 13  1  0  0  0  0
  7 14  1  0  0  0  0
 14 15  1  0  0  0  0
 15 16  2  0  0  0  0
 15 17  1  0  0  0  0
 17 18  1  0  0  0  0
 15 19  2  0  0  0  0
 19 20  1  0  0  0  0
  1 21  1  0  0  0  0
  1 22  1  0  0  0  0
  1 23  1  0  0  0  0
  2 24  1  0  0  0  0
  2 25  1  0  0  0  0
  6 26  1  0  0  0  0
  6 27  1  0  0  0  0
 12 28  1  0  0  0  0
 12 29  1  0  0  0  0
 13 30  1  0  0  0  0
 13 31  1  0  0  0  0
 13 32  1  0  0  0  0
 18 33  1  0  0  0  0
 18 34  1  0  0  0  0
 18 35  1  0  0  0  0
 20 36  1  0  0  0  0
 20 37  1  0  0  0  0
 20 38  1  0  0  0  0
M  END
