 xtb: 6.7.1 (edcfbbe)
          04092505213D

 41 40  0     0  0            999 V2000
    5.4142   -1.3619   -0.9580 C   0  0  0  0  0  0  0  0  0  0  0  0
    4.1757   -0.7878   -1.6148 C   0  0  0  0  0  0  0  0  0  0  0  0
    3.6237    0.2967   -0.8277 O   0  0  0  0  0  0  0  0  0  0  0  0
    2.5033    0.1187    0.2702 P   0  0  0  0  0  0  0  0  0  0  0  0
    2.1473    1.8064    1.1861 S   0  0  0  0  0  0  0  0  0  0  0  0
    3.0546   -1.0596    1.1827 O   0  0  0  0  0  0  0  0  0  0  0  0
    2.5541   -1.2870    2.5131 C   0  0  0  0  0  0  0  0  0  0  0  0
    1.1142   -1.7576    2.5068 C   0  0  0  0  0  0  0  0  0  0  0  0
    0.8991   -0.8070   -0.8060 S   0  0  0  0  0  0  0  0  0  0  0  0
    0.2754    0.7062   -1.5774 C   0  0  0  0  0  0  0  0  0  0  0  0
   -0.8737    1.6352   -0.5253 S   0  0  0  0  0  0  0  0  0  0  0  0
   -2.4244    0.1996   -0.5716 P   0  0  0  0  0  0  0  0  0  0  0  0
   -2.7323   -0.7048   -2.2743 S   0  0  0  0  0  0  0  0  0  0  0  0
   -3.7209    0.9696   -0.0840 O   0  0  0  0  0  0  0  0  0  0  0  0
   -3.8420    1.6027    1.2138 C   0  0  0  0  0  0  0  0  0  0  0  0
   -3.5585    3.0884    1.1222 C   0  0  0  0  0  0  0  0  0  0  0  0
   -1.9659   -0.7371    0.6431 O   0  0  0  0  0  0  0  0  0  0  0  0
   -2.3147   -2.1346    0.6931 C   0  0  0  0  0  0  0  0  0  0  0  0
   -3.7902   -2.3276    0.9778 C   0  0  0  0  0  0  0  0  0  0  0  0
    5.1593   -1.8257   -0.0093 H   0  0  0  0  0  0  0  0  0  0  0  0
    5.8495   -2.1076   -1.6161 H   0  0  0  0  0  0  0  0  0  0  0  0
    6.1401   -0.5733   -0.7797 H   0  0  0  0  0  0  0  0  0  0  0  0
    3.4069   -1.5538   -1.7500 H   0  0  0  0  0  0  0  0  0  0  0  0
    4.4140   -0.3278   -2.5756 H   0  0  0  0  0  0  0  0  0  0  0  0
    3.2238   -2.0466    2.9189 H   0  0  0  0  0  0  0  0  0  0  0  0
    2.6539   -0.3576    3.0821 H   0  0  0  0  0  0  0  0  0  0  0  0
    0.4635   -0.9583    2.1526 H   0  0  0  0  0  0  0  0  0  0  0  0
    1.0041   -2.6185    1.8513 H   0  0  0  0  0  0  0  0  0  0  0  0
    0.8211   -2.0285    3.5162 H   0  0  0  0  0  0  0  0  0  0  0  0
   -0.2457    0.4043   -2.4861 H   0  0  0  0  0  0  0  0  0  0  0  0
    1.1044    1.3768   -1.7966 H   0  0  0  0  0  0  0  0  0  0  0  0
   -4.8770    1.4167    1.5061 H   0  0  0  0  0  0  0  0  0  0  0  0
   -3.1621    1.1131    1.9151 H   0  0  0  0  0  0  0  0  0  0  0  0
   -4.1924    3.5424    0.3656 H   0  0  0  0  0  0  0  0  0  0  0  0
   -3.7622    3.5479    2.0844 H   0  0  0  0  0  0  0  0  0  0  0  0
   -2.5173    3.2657    0.8592 H   0  0  0  0  0  0  0  0  0  0  0  0
   -2.0398   -2.5938   -0.2613 H   0  0  0  0  0  0  0  0  0  0  0  0
   -1.6900   -2.5355    1.4920 H   0  0  0  0  0  0  0  0  0  0  0  0
   -4.3798   -1.8910    0.1716 H   0  0  0  0  0  0  0  0  0  0  0  0
   -4.0090   -3.3889    1.0385 H   0  0  0  0  0  0  0  0  0  0  0  0
   -4.0631   -1.8490    1.9148 H   0  0  0  0  0  0  0  0  0  0  0  0
  1  2  1  0  0  0  0
  2  3  1  0  0  0  0
  3  4  2  0  0  0  0
  4  5  2  0  0  0  0
  4  6  2  0  0  0  0
  6  7  1  0  0  0  0
  7  8  1  0  0  0  0
  4  9  1  0  0  0  0
  9 10  1  0  0  0  0
 10 11  1  0  0  0  0
 11 12  1  0  0  0  0
 12 13  2  0  0  0  0
 12 14  2  0  0  0  0
 14 15  1  0  0  0  0
 15 16  1  0  0  0  0
 12 17  1  0  0  0  0
 17 18  1  0  0  0  0
 18 19  1  0  0  0  0
  1 20  1  0  0  0  0
  1 21  1  0  0  0  0
  1 22  1  0  0  0  0
  2 23  1  0  0  0  0
  2 24  1  0  0  0  0
  7 25  1  0  0  0  0
  7 26  1  0  0  0  0
  8 27  1  0  0  0  0
  8 28  1  0  0  0  0
  8 29  1  0  0  0  0
 10 30  1  0  0  0  0
 10 31  1  0  0  0  0
 15 32  1  0  0  0  0
 15 33  1  0  0  0  0
 16 34  1  0  0  0  0
 16 35  1  0  0  0  0
 16 36  1  0  0  0  0
 18 37  1  0  0  0  0
 18 38  1  0  0  0  0
 19 39  1  0  0  0  0
 19 40  1  0  0  0  0
 19 41  1  0  0  0  0
M  END
