 xtb: 6.7.1 (edcfbbe)
          04092505213D

 41 40  0     0  0            999 V2000
    5.8856   -1.5836   -1.0769 C   0  0  0  0  0  0  0  0  0  0  0  0
    4.5588   -0.9061   -1.3531 C   0  0  0  0  0  0  0  0  0  0  0  0
    3.8040   -0.8912   -0.1234 O   0  0  0  0  0  0  0  0  0  0  0  0
    2.5754    0.0960    0.0685 P   0  0  0  0  0  0  0  0  0  0  0  0
    2.9373    1.9860   -0.2786 S   0  0  0  0  0  0  0  0  0  0  0  0
    2.1339   -0.1543    1.5555 O   0  0  0  0  0  0  0  0  0  0  0  0
    1.8038   -1.4580    2.0992 C   0  0  0  0  0  0  0  0  0  0  0  0
    3.0155   -2.1036    2.7384 C   0  0  0  0  0  0  0  0  0  0  0  0
    1.0782   -0.7831   -1.1778 S   0  0  0  0  0  0  0  0  0  0  0  0
    0.0106    0.6717   -1.2516 C   0  0  0  0  0  0  0  0  0  0  0  0
   -0.9016    0.9481    0.2876 S   0  0  0  0  0  0  0  0  0  0  0  0
   -2.8750    0.4087   -0.3756 P   0  0  0  0  0  0  0  0  0  0  0  0
   -3.0366   -0.2380   -2.2125 S   0  0  0  0  0  0  0  0  0  0  0  0
   -3.7170    1.7215   -0.1510 O   0  0  0  0  0  0  0  0  0  0  0  0
   -3.7316    2.5106    1.0624 C   0  0  0  0  0  0  0  0  0  0  0  0
   -4.7614    1.9980    2.0481 C   0  0  0  0  0  0  0  0  0  0  0  0
   -3.4423   -0.5708    0.7427 O   0  0  0  0  0  0  0  0  0  0  0  0
   -3.2648   -1.9973    0.6777 C   0  0  0  0  0  0  0  0  0  0  0  0
   -1.8187   -2.4034    0.8746 C   0  0  0  0  0  0  0  0  0  0  0  0
    6.4693   -1.6070   -1.9912 H   0  0  0  0  0  0  0  0  0  0  0  0
    6.4336   -1.0344   -0.3165 H   0  0  0  0  0  0  0  0  0  0  0  0
    5.7208   -2.5996   -0.7304 H   0  0  0  0  0  0  0  0  0  0  0  0
    3.9777   -1.4510   -2.1017 H   0  0  0  0  0  0  0  0  0  0  0  0
    4.6985    0.1268   -1.6891 H   0  0  0  0  0  0  0  0  0  0  0  0
    1.0286   -1.2467    2.8379 H   0  0  0  0  0  0  0  0  0  0  0  0
    1.3982   -2.0829    1.2986 H   0  0  0  0  0  0  0  0  0  0  0  0
    2.7158   -3.0405    3.1975 H   0  0  0  0  0  0  0  0  0  0  0  0
    3.7785   -2.2981    1.9899 H   0  0  0  0  0  0  0  0  0  0  0  0
    3.4302   -1.4473    3.4986 H   0  0  0  0  0  0  0  0  0  0  0  0
   -0.6995    0.5077   -2.0652 H   0  0  0  0  0  0  0  0  0  0  0  0
    0.6334    1.5490   -1.4297 H   0  0  0  0  0  0  0  0  0  0  0  0
   -2.7279    2.5057    1.4974 H   0  0  0  0  0  0  0  0  0  0  0  0
   -3.9777    3.5164    0.7171 H   0  0  0  0  0  0  0  0  0  0  0  0
   -4.8087    2.6777    2.8933 H   0  0  0  0  0  0  0  0  0  0  0  0
   -5.7373    1.9483    1.5730 H   0  0  0  0  0  0  0  0  0  0  0  0
   -4.4907    1.0065    2.3999 H   0  0  0  0  0  0  0  0  0  0  0  0
   -3.9016   -2.3755    1.4787 H   0  0  0  0  0  0  0  0  0  0  0  0
   -3.6361   -2.3480   -0.2901 H   0  0  0  0  0  0  0  0  0  0  0  0
   -1.2219   -2.0885    0.0190 H   0  0  0  0  0  0  0  0  0  0  0  0
   -1.4201   -1.9454    1.7764 H   0  0  0  0  0  0  0  0  0  0  0  0
   -1.7580   -3.4834    0.9614 H   0  0  0  0  0  0  0  0  0  0  0  0
  1  2  1  0  0  0  0
  2  3  1  0  0  0  0
  3  4  2  0  0  0  0
  4  5  2  0  0  0  0
  4  6  2  0  0  0  0
  6  7  1  0  0  0  0
  7  8  1  0  0  0  0
  4  9  1  0  0  0  0
  9 10  1  0  0  0  0
 10 11  1  0  0  0  0
 11 12  1  0  0  0  0
 12 13  2  0  0  0  0
 12 14  2  0  0  0  0
 14 15  1  0  0  0  0
 15 16  1  0  0  0  0
 12 17  2  0  0  0  0
 17 18  1  0  0  0  0
 18 19  1  0  0  0  0
  1 20  1  0  0  0  0
  1 21  1  0  0  0  0
  1 22  1  0  0  0  0
  2 23  1  0  0  0  0
  2 24  1  0  0  0  0
  7 25  1  0  0  0  0
  7 26  1  0  0  0  0
  8 27  1  0  0  0  0
  8 28  1  0  0  0  0
  8 29  1  0  0  0  0
 10 30  1  0  0  0  0
 10 31  1  0  0  0  0
 15 32  1  0  0  0  0
 15 33  1  0  0  0  0
 16 34  1  0  0  0  0
 16 35  1  0  0  0  0
 16 36  1  0  0  0  0
 18 37  1  0  0  0  0
 18 38  1  0  0  0  0
 19 39  1  0  0  0  0
 19 40  1  0  0  0  0
 19 41  1  0  0  0  0
M  END
