 xtb: 6.7.1 (edcfbbe)
          04032520273D

 10  9  0     0  0            999 V2000
    1.4780    0.5709    0.0000 C   0  0  0  0  0  0  0  0  0  0  0  0
    0.6729   -0.7216   -0.0001 C   0  0  0  0  0  0  0  0  0  0  0  0
   -0.8006   -0.4971    0.0001 C   0  0  0  0  0  0  0  0  0  0  0  0
   -1.3561    0.5749   -0.0000 O   0  0  0  0  0  0  0  0  0  0  0  0
    2.5424    0.3566   -0.0011 H   0  0  0  0  0  0  0  0  0  0  0  0
    1.2376    1.1631    0.8795 H   0  0  0  0  0  0  0  0  0  0  0  0
    1.2359    1.1643   -0.8782 H   0  0  0  0  0  0  0  0  0  0  0  0
    0.9084   -1.3305   -0.8767 H   0  0  0  0  0  0  0  0  0  0  0  0
    0.9086   -1.3308    0.8762 H   0  0  0  0  0  0  0  0  0  0  0  0
   -1.3975   -1.4290    0.0002 H   0  0  0  0  0  0  0  0  0  0  0  0
  1  2  1  0  0  0  0
  2  3  1  0  0  0  0
  3  4  2  0  0  0  0
  1  5  1  0  0  0  0
  1  6  1  0  0  0  0
  1  7  1  0  0  0  0
  2  8  1  0  0  0  0
  2  9  1  0  0  0  0
  3 10  1  0  0  0  0
M  END
