 xtb: 6.7.1 (edcfbbe)
          04092505203D

 41 40  0     0  0            999 V2000
    4.6870   -0.0384   -1.7981 C   0  0  0  0  0  0  0  0  0  0  0  0
    4.4762    1.0401   -0.7549 C   0  0  0  0  0  0  0  0  0  0  0  0
    3.5948    0.6161    0.2982 O   0  0  0  0  0  0  0  0  0  0  0  0
    2.0514    0.3298    0.0613 P   0  0  0  0  0  0  0  0  0  0  0  0
    1.1710    1.5892   -1.1578 S   0  0  0  0  0  0  0  0  0  0  0  0
    1.4468    0.4216    1.5156 O   0  0  0  0  0  0  0  0  0  0  0  0
    1.6302   -0.5323    2.5964 C   0  0  0  0  0  0  0  0  0  0  0  0
    3.0841   -0.8295    2.8876 C   0  0  0  0  0  0  0  0  0  0  0  0
    1.9751   -1.7220   -0.4923 S   0  0  0  0  0  0  0  0  0  0  0  0
    0.2591   -1.7628   -1.0491 C   0  0  0  0  0  0  0  0  0  0  0  0
   -0.9277   -1.5256    0.3123 S   0  0  0  0  0  0  0  0  0  0  0  0
   -2.0375    0.1496   -0.3945 P   0  0  0  0  0  0  0  0  0  0  0  0
   -2.0252    0.4087   -2.3310 S   0  0  0  0  0  0  0  0  0  0  0  0
   -1.5970    1.4092    0.4374 O   0  0  0  0  0  0  0  0  0  0  0  0
   -1.6414    1.4554    1.8858 C   0  0  0  0  0  0  0  0  0  0  0  0
   -2.8824    2.1825    2.3587 C   0  0  0  0  0  0  0  0  0  0  0  0
   -3.4696   -0.1604    0.2257 O   0  0  0  0  0  0  0  0  0  0  0  0
   -4.2908   -1.2233   -0.2991 C   0  0  0  0  0  0  0  0  0  0  0  0
   -5.6955   -1.0337    0.2358 C   0  0  0  0  0  0  0  0  0  0  0  0
    4.9851   -0.9709   -1.3258 H   0  0  0  0  0  0  0  0  0  0  0  0
    3.7655   -0.2032   -2.3544 H   0  0  0  0  0  0  0  0  0  0  0  0
    5.4603    0.2794   -2.4901 H   0  0  0  0  0  0  0  0  0  0  0  0
    4.0584    1.9417   -1.2140 H   0  0  0  0  0  0  0  0  0  0  0  0
    5.4032    1.2837   -0.2340 H   0  0  0  0  0  0  0  0  0  0  0  0
    1.1433   -0.0419    3.4407 H   0  0  0  0  0  0  0  0  0  0  0  0
    1.0873   -1.4460    2.3372 H   0  0  0  0  0  0  0  0  0  0  0  0
    3.6301    0.0928    3.0666 H   0  0  0  0  0  0  0  0  0  0  0  0
    3.1421   -1.4596    3.7698 H   0  0  0  0  0  0  0  0  0  0  0  0
    3.5395   -1.3518    2.0490 H   0  0  0  0  0  0  0  0  0  0  0  0
    0.0980   -2.7522   -1.4695 H   0  0  0  0  0  0  0  0  0  0  0  0
    0.0825   -0.9830   -1.7956 H   0  0  0  0  0  0  0  0  0  0  0  0
   -1.6065    0.4328    2.2729 H   0  0  0  0  0  0  0  0  0  0  0  0
   -0.7295    1.9870    2.1666 H   0  0  0  0  0  0  0  0  0  0  0  0
   -2.9153    3.1791    1.9269 H   0  0  0  0  0  0  0  0  0  0  0  0
   -3.7736    1.6395    2.0558 H   0  0  0  0  0  0  0  0  0  0  0  0
   -2.8563    2.2597    3.4411 H   0  0  0  0  0  0  0  0  0  0  0  0
   -4.2647   -1.1731   -1.3926 H   0  0  0  0  0  0  0  0  0  0  0  0
   -3.8640   -2.1759    0.0265 H   0  0  0  0  0  0  0  0  0  0  0  0
   -6.0917   -0.0751   -0.0874 H   0  0  0  0  0  0  0  0  0  0  0  0
   -6.3292   -1.8284   -0.1435 H   0  0  0  0  0  0  0  0  0  0  0  0
   -5.6884   -1.0663    1.3214 H   0  0  0  0  0  0  0  0  0  0  0  0
  1  2  1  0  0  0  0
  2  3  1  0  0  0  0
  3  4  2  0  0  0  0
  4  5  2  0  0  0  0
  4  6  2  0  0  0  0
  6  7  1  0  0  0  0
  7  8  1  0  0  0  0
  4  9  1  0  0  0  0
  9 10  1  0  0  0  0
 10 11  1  0  0  0  0
 11 12  1  0  0  0  0
 12 13  2  0  0  0  0
 12 14  2  0  0  0  0
 14 15  1  0  0  0  0
 15 16  1  0  0  0  0
 12 17  2  0  0  0  0
 17 18  1  0  0  0  0
 18 19  1  0  0  0  0
  1 20  1  0  0  0  0
  1 21  1  0  0  0  0
  1 22  1  0  0  0  0
  2 23  1  0  0  0  0
  2 24  1  0  0  0  0
  7 25  1  0  0  0  0
  7 26  1  0  0  0  0
  8 27  1  0  0  0  0
  8 28  1  0  0  0  0
  8 29  1  0  0  0  0
 10 30  1  0  0  0  0
 10 31  1  0  0  0  0
 15 32  1  0  0  0  0
 15 33  1  0  0  0  0
 16 34  1  0  0  0  0
 16 35  1  0  0  0  0
 16 36  1  0  0  0  0
 18 37  1  0  0  0  0
 18 38  1  0  0  0  0
 19 39  1  0  0  0  0
 19 40  1  0  0  0  0
 19 41  1  0  0  0  0
M  END
