 xtb: 6.7.1 (edcfbbe)
          04092505213D

 41 40  0     0  0            999 V2000
    1.3276   -2.5350    2.1673 C   0  0  0  0  0  0  0  0  0  0  0  0
    2.1178   -1.2704    2.4351 C   0  0  0  0  0  0  0  0  0  0  0  0
    1.6814   -0.1961    1.5629 O   0  0  0  0  0  0  0  0  0  0  0  0
    2.4303    0.1516    0.2158 P   0  0  0  0  0  0  0  0  0  0  0  0
    3.3448   -1.3354   -0.6848 S   0  0  0  0  0  0  0  0  0  0  0  0
    3.3523    1.3555    0.6934 O   0  0  0  0  0  0  0  0  0  0  0  0
    4.2859    2.0094   -0.1911 C   0  0  0  0  0  0  0  0  0  0  0  0
    5.6764    1.4256   -0.0305 C   0  0  0  0  0  0  0  0  0  0  0  0
    0.9260    1.1209   -0.9090 S   0  0  0  0  0  0  0  0  0  0  0  0
    0.1949   -0.3885   -1.6011 C   0  0  0  0  0  0  0  0  0  0  0  0
   -0.9232   -1.2026   -0.4444 S   0  0  0  0  0  0  0  0  0  0  0  0
   -2.4423    0.2998   -0.4978 P   0  0  0  0  0  0  0  0  0  0  0  0
   -2.6893    1.0881   -2.2744 S   0  0  0  0  0  0  0  0  0  0  0  0
   -2.1230    1.3972    0.5843 O   0  0  0  0  0  0  0  0  0  0  0  0
   -2.3824    1.3004    2.0075 C   0  0  0  0  0  0  0  0  0  0  0  0
   -1.6189    0.1688    2.6609 C   0  0  0  0  0  0  0  0  0  0  0  0
   -3.7064   -0.4384    0.1135 O   0  0  0  0  0  0  0  0  0  0  0  0
   -4.4122   -1.4473   -0.6408 C   0  0  0  0  0  0  0  0  0  0  0  0
   -5.7688   -1.6446    0.0043 C   0  0  0  0  0  0  0  0  0  0  0  0
    0.2631   -2.3468    2.2684 H   0  0  0  0  0  0  0  0  0  0  0  0
    1.5214   -2.8922    1.1581 H   0  0  0  0  0  0  0  0  0  0  0  0
    1.6301   -3.2983    2.8769 H   0  0  0  0  0  0  0  0  0  0  0  0
    3.1868   -1.4409    2.2848 H   0  0  0  0  0  0  0  0  0  0  0  0
    1.9431   -0.8915    3.4429 H   0  0  0  0  0  0  0  0  0  0  0  0
    3.9355    1.9134   -1.2229 H   0  0  0  0  0  0  0  0  0  0  0  0
    4.2576    3.0597    0.1046 H   0  0  0  0  0  0  0  0  0  0  0  0
    6.3698    1.9776   -0.6567 H   0  0  0  0  0  0  0  0  0  0  0  0
    5.9926    1.4960    1.0065 H   0  0  0  0  0  0  0  0  0  0  0  0
    5.6832    0.3801   -0.3308 H   0  0  0  0  0  0  0  0  0  0  0  0
    0.9879   -1.0967   -1.8458 H   0  0  0  0  0  0  0  0  0  0  0  0
   -0.3634   -0.0894   -2.4888 H   0  0  0  0  0  0  0  0  0  0  0  0
   -2.0599    2.2732    2.3820 H   0  0  0  0  0  0  0  0  0  0  0  0
   -3.4582    1.1827    2.1485 H   0  0  0  0  0  0  0  0  0  0  0  0
   -0.5561    0.2613    2.4493 H   0  0  0  0  0  0  0  0  0  0  0  0
   -1.7748    0.2095    3.7345 H   0  0  0  0  0  0  0  0  0  0  0  0
   -1.9736   -0.7893    2.2854 H   0  0  0  0  0  0  0  0  0  0  0  0
   -4.5049   -1.1055   -1.6768 H   0  0  0  0  0  0  0  0  0  0  0  0
   -3.8189   -2.3650   -0.6180 H   0  0  0  0  0  0  0  0  0  0  0  0
   -6.3328   -0.7164   -0.0202 H   0  0  0  0  0  0  0  0  0  0  0  0
   -6.3133   -2.4075   -0.5422 H   0  0  0  0  0  0  0  0  0  0  0  0
   -5.6492   -1.9587    1.0369 H   0  0  0  0  0  0  0  0  0  0  0  0
  1  2  1  0  0  0  0
  2  3  1  0  0  0  0
  3  4  2  0  0  0  0
  4  5  2  0  0  0  0
  4  6  2  0  0  0  0
  6  7  1  0  0  0  0
  7  8  1  0  0  0  0
  4  9  1  0  0  0  0
  9 10  1  0  0  0  0
 10 11  1  0  0  0  0
 11 12  1  0  0  0  0
 12 13  2  0  0  0  0
 12 14  2  0  0  0  0
 14 15  1  0  0  0  0
 15 16  1  0  0  0  0
 12 17  2  0  0  0  0
 17 18  1  0  0  0  0
 18 19  1  0  0  0  0
  1 20  1  0  0  0  0
  1 21  1  0  0  0  0
  1 22  1  0  0  0  0
  2 23  1  0  0  0  0
  2 24  1  0  0  0  0
  7 25  1  0  0  0  0
  7 26  1  0  0  0  0
  8 27  1  0  0  0  0
  8 28  1  0  0  0  0
  8 29  1  0  0  0  0
 10 30  1  0  0  0  0
 10 31  1  0  0  0  0
 15 32  1  0  0  0  0
 15 33  1  0  0  0  0
 16 34  1  0  0  0  0
 16 35  1  0  0  0  0
 16 36  1  0  0  0  0
 18 37  1  0  0  0  0
 18 38  1  0  0  0  0
 19 39  1  0  0  0  0
 19 40  1  0  0  0  0
 19 41  1  0  0  0  0
M  END
