 xtb: 6.7.1 (edcfbbe)
          04092505213D

 41 40  0     0  0            999 V2000
    2.3991    2.4720   -1.1652 C   0  0  0  0  0  0  0  0  0  0  0  0
    3.4568    1.3897   -1.1160 C   0  0  0  0  0  0  0  0  0  0  0  0
    3.4620    0.6600    0.1247 O   0  0  0  0  0  0  0  0  0  0  0  0
    2.1808    0.0817    0.8653 P   0  0  0  0  0  0  0  0  0  0  0  0
    1.1576    1.3312    1.9637 S   0  0  0  0  0  0  0  0  0  0  0  0
    2.7816   -1.0460    1.7889 O   0  0  0  0  0  0  0  0  0  0  0  0
    3.7314   -2.0452    1.3397 C   0  0  0  0  0  0  0  0  0  0  0  0
    5.1452   -1.6280    1.6895 C   0  0  0  0  0  0  0  0  0  0  0  0
    1.1952   -0.9638   -0.7296 S   0  0  0  0  0  0  0  0  0  0  0  0
    0.0425   -1.9466    0.2595 C   0  0  0  0  0  0  0  0  0  0  0  0
   -1.3236   -0.9986    0.9862 S   0  0  0  0  0  0  0  0  0  0  0  0
   -2.0441   -0.1349   -0.8314 P   0  0  0  0  0  0  0  0  0  0  0  0
   -1.8241   -1.2346   -2.4309 S   0  0  0  0  0  0  0  0  0  0  0  0
   -1.3705    1.2830   -0.9570 O   0  0  0  0  0  0  0  0  0  0  0  0
   -1.6074    2.3539   -0.0062 C   0  0  0  0  0  0  0  0  0  0  0  0
   -2.6647    3.3017   -0.5292 C   0  0  0  0  0  0  0  0  0  0  0  0
   -3.5432    0.2220   -0.4503 O   0  0  0  0  0  0  0  0  0  0  0  0
   -4.5351   -0.8159   -0.3052 C   0  0  0  0  0  0  0  0  0  0  0  0
   -5.8992   -0.1568   -0.2979 C   0  0  0  0  0  0  0  0  0  0  0  0
    2.4898    3.1298   -0.3035 H   0  0  0  0  0  0  0  0  0  0  0  0
    2.5174    3.0506   -2.0758 H   0  0  0  0  0  0  0  0  0  0  0  0
    1.4051    2.0243   -1.1622 H   0  0  0  0  0  0  0  0  0  0  0  0
    4.4613    1.8134   -1.1706 H   0  0  0  0  0  0  0  0  0  0  0  0
    3.3104    0.6728   -1.9291 H   0  0  0  0  0  0  0  0  0  0  0  0
    3.4461   -2.9552    1.8712 H   0  0  0  0  0  0  0  0  0  0  0  0
    3.6154   -2.1916    0.2624 H   0  0  0  0  0  0  0  0  0  0  0  0
    5.4079   -0.7120    1.1675 H   0  0  0  0  0  0  0  0  0  0  0  0
    5.2271   -1.4555    2.7591 H   0  0  0  0  0  0  0  0  0  0  0  0
    5.8312   -2.4175    1.3991 H   0  0  0  0  0  0  0  0  0  0  0  0
    0.5629   -2.4156    1.0915 H   0  0  0  0  0  0  0  0  0  0  0  0
   -0.3650   -2.6885   -0.4266 H   0  0  0  0  0  0  0  0  0  0  0  0
   -1.8917    1.9210    0.9565 H   0  0  0  0  0  0  0  0  0  0  0  0
   -0.6413    2.8499    0.1051 H   0  0  0  0  0  0  0  0  0  0  0  0
   -2.7705    4.1274    0.1673 H   0  0  0  0  0  0  0  0  0  0  0  0
   -2.3701    3.6856   -1.5019 H   0  0  0  0  0  0  0  0  0  0  0  0
   -3.6170    2.7873   -0.6266 H   0  0  0  0  0  0  0  0  0  0  0  0
   -4.4296   -1.5152   -1.1411 H   0  0  0  0  0  0  0  0  0  0  0  0
   -4.3409   -1.3452    0.6319 H   0  0  0  0  0  0  0  0  0  0  0  0
   -6.6611   -0.9202   -0.1798 H   0  0  0  0  0  0  0  0  0  0  0  0
   -5.9673    0.5492    0.5248 H   0  0  0  0  0  0  0  0  0  0  0  0
   -6.0637    0.3715   -1.2328 H   0  0  0  0  0  0  0  0  0  0  0  0
  1  2  1  0  0  0  0
  2  3  1  0  0  0  0
  3  4  2  0  0  0  0
  4  5  2  0  0  0  0
  4  6  2  0  0  0  0
  6  7  1  0  0  0  0
  7  8  1  0  0  0  0
  4  9  1  0  0  0  0
  9 10  1  0  0  0  0
 10 11  1  0  0  0  0
 11 12  1  0  0  0  0
 12 13  2  0  0  0  0
 12 14  2  0  0  0  0
 14 15  1  0  0  0  0
 15 16  1  0  0  0  0
 12 17  2  0  0  0  0
 17 18  1  0  0  0  0
 18 19  1  0  0  0  0
  1 20  1  0  0  0  0
  1 21  1  0  0  0  0
  1 22  1  0  0  0  0
  2 23  1  0  0  0  0
  2 24  1  0  0  0  0
  7 25  1  0  0  0  0
  7 26  1  0  0  0  0
  8 27  1  0  0  0  0
  8 28  1  0  0  0  0
  8 29  1  0  0  0  0
 10 30  1  0  0  0  0
 10 31  1  0  0  0  0
 15 32  1  0  0  0  0
 15 33  1  0  0  0  0
 16 34  1  0  0  0  0
 16 35  1  0  0  0  0
 16 36  1  0  0  0  0
 18 37  1  0  0  0  0
 18 38  1  0  0  0  0
 19 39  1  0  0  0  0
 19 40  1  0  0  0  0
 19 41  1  0  0  0  0
M  END
