 xtb: 6.7.1 (edcfbbe)
          04092505203D

 41 40  0     0  0            999 V2000
    3.2653   -0.3764   -2.6589 C   0  0  0  0  0  0  0  0  0  0  0  0
    2.0780   -0.9920   -1.9502 C   0  0  0  0  0  0  0  0  0  0  0  0
    1.4936   -0.0474   -1.0160 O   0  0  0  0  0  0  0  0  0  0  0  0
    1.8279   -0.0220    0.5187 P   0  0  0  0  0  0  0  0  0  0  0  0
    0.9217    1.4152    1.4871 S   0  0  0  0  0  0  0  0  0  0  0  0
    3.4119    0.0355    0.5451 O   0  0  0  0  0  0  0  0  0  0  0  0
    4.1332    0.0983    1.7945 C   0  0  0  0  0  0  0  0  0  0  0  0
    5.5745    0.4429    1.4810 C   0  0  0  0  0  0  0  0  0  0  0  0
    1.4171   -1.9684    1.2654 S   0  0  0  0  0  0  0  0  0  0  0  0
   -0.3699   -1.7454    1.4305 C   0  0  0  0  0  0  0  0  0  0  0  0
   -1.2370   -1.7152   -0.1732 S   0  0  0  0  0  0  0  0  0  0  0  0
   -2.0139    0.2506   -0.3743 P   0  0  0  0  0  0  0  0  0  0  0  0
   -1.1246    1.6208   -1.4673 S   0  0  0  0  0  0  0  0  0  0  0  0
   -2.2880    0.5725    1.1504 O   0  0  0  0  0  0  0  0  0  0  0  0
   -2.5379    1.9137    1.6172 C   0  0  0  0  0  0  0  0  0  0  0  0
   -3.8510    2.4565    1.0973 C   0  0  0  0  0  0  0  0  0  0  0  0
   -3.4848   -0.0616   -0.9051 O   0  0  0  0  0  0  0  0  0  0  0  0
   -3.7933   -0.1383   -2.3037 C   0  0  0  0  0  0  0  0  0  0  0  0
   -3.1701   -1.3615   -2.9451 C   0  0  0  0  0  0  0  0  0  0  0  0
    4.0551   -0.1526   -1.9468 H   0  0  0  0  0  0  0  0  0  0  0  0
    3.6354   -1.0765   -3.4012 H   0  0  0  0  0  0  0  0  0  0  0  0
    2.9647    0.5452   -3.1505 H   0  0  0  0  0  0  0  0  0  0  0  0
    2.3598   -1.8984   -1.4067 H   0  0  0  0  0  0  0  0  0  0  0  0
    1.2676   -1.2161   -2.6470 H   0  0  0  0  0  0  0  0  0  0  0  0
    3.6644    0.8584    2.4276 H   0  0  0  0  0  0  0  0  0  0  0  0
    4.0504   -0.8759    2.2836 H   0  0  0  0  0  0  0  0  0  0  0  0
    6.0084   -0.3185    0.8394 H   0  0  0  0  0  0  0  0  0  0  0  0
    5.6280    1.4036    0.9764 H   0  0  0  0  0  0  0  0  0  0  0  0
    6.1362    0.4939    2.4078 H   0  0  0  0  0  0  0  0  0  0  0  0
   -0.5695   -0.8181    1.9667 H   0  0  0  0  0  0  0  0  0  0  0  0
   -0.7397   -2.6105    1.9740 H   0  0  0  0  0  0  0  0  0  0  0  0
   -2.5368    1.8130    2.7036 H   0  0  0  0  0  0  0  0  0  0  0  0
   -1.6992    2.5486    1.3126 H   0  0  0  0  0  0  0  0  0  0  0  0
   -4.6590    1.7676    1.3289 H   0  0  0  0  0  0  0  0  0  0  0  0
   -4.0472    3.4185    1.5601 H   0  0  0  0  0  0  0  0  0  0  0  0
   -3.7952    2.5874    0.0173 H   0  0  0  0  0  0  0  0  0  0  0  0
   -4.8829   -0.1735   -2.3349 H   0  0  0  0  0  0  0  0  0  0  0  0
   -3.4331    0.7757   -2.7882 H   0  0  0  0  0  0  0  0  0  0  0  0
   -3.4720   -1.4213   -3.9856 H   0  0  0  0  0  0  0  0  0  0  0  0
   -2.0834   -1.2843   -2.8936 H   0  0  0  0  0  0  0  0  0  0  0  0
   -3.4784   -2.2631   -2.4224 H   0  0  0  0  0  0  0  0  0  0  0  0
  1  2  1  0  0  0  0
  2  3  1  0  0  0  0
  3  4  2  0  0  0  0
  4  5  2  0  0  0  0
  4  6  2  0  0  0  0
  6  7  1  0  0  0  0
  7  8  1  0  0  0  0
  4  9  1  0  0  0  0
  9 10  1  0  0  0  0
 10 11  1  0  0  0  0
 11 12  1  0  0  0  0
 12 13  2  0  0  0  0
 12 14  2  0  0  0  0
 14 15  1  0  0  0  0
 15 16  1  0  0  0  0
 12 17  2  0  0  0  0
 17 18  1  0  0  0  0
 18 19  1  0  0  0  0
  1 20  1  0  0  0  0
  1 21  1  0  0  0  0
  1 22  1  0  0  0  0
  2 23  1  0  0  0  0
  2 24  1  0  0  0  0
  7 25  1  0  0  0  0
  7 26  1  0  0  0  0
  8 27  1  0  0  0  0
  8 28  1  0  0  0  0
  8 29  1  0  0  0  0
 10 30  1  0  0  0  0
 10 31  1  0  0  0  0
 15 32  1  0  0  0  0
 15 33  1  0  0  0  0
 16 34  1  0  0  0  0
 16 35  1  0  0  0  0
 16 36  1  0  0  0  0
 18 37  1  0  0  0  0
 18 38  1  0  0  0  0
 19 39  1  0  0  0  0
 19 40  1  0  0  0  0
 19 41  1  0  0  0  0
M  END
