 xtb: 6.7.1 (edcfbbe)
          04092505203D

 41 40  0     0  0            999 V2000
    4.5907   -1.5815   -0.6852 C   0  0  0  0  0  0  0  0  0  0  0  0
    4.6051   -0.1226   -0.2761 C   0  0  0  0  0  0  0  0  0  0  0  0
    3.4315    0.2469    0.4672 O   0  0  0  0  0  0  0  0  0  0  0  0
    1.9862    0.3253   -0.1947 P   0  0  0  0  0  0  0  0  0  0  0  0
    1.9759    1.0134   -2.0349 S   0  0  0  0  0  0  0  0  0  0  0  0
    1.1927    1.1487    0.9033 O   0  0  0  0  0  0  0  0  0  0  0  0
    1.1442    2.5867    0.9130 C   0  0  0  0  0  0  0  0  0  0  0  0
    2.4927    3.2029    1.2176 C   0  0  0  0  0  0  0  0  0  0  0  0
    1.2213   -1.5986    0.1439 S   0  0  0  0  0  0  0  0  0  0  0  0
   -0.0671   -1.7006   -1.1474 C   0  0  0  0  0  0  0  0  0  0  0  0
   -1.7266   -1.9383   -0.4765 S   0  0  0  0  0  0  0  0  0  0  0  0
   -2.0917    0.0512    0.1728 P   0  0  0  0  0  0  0  0  0  0  0  0
   -1.4943    1.4659   -1.0400 S   0  0  0  0  0  0  0  0  0  0  0  0
   -1.4623    0.1919    1.6123 O   0  0  0  0  0  0  0  0  0  0  0  0
   -1.8620   -0.6229    2.7488 C   0  0  0  0  0  0  0  0  0  0  0  0
   -0.7804   -1.6271    3.0917 C   0  0  0  0  0  0  0  0  0  0  0  0
   -3.6478    0.0479    0.5030 O   0  0  0  0  0  0  0  0  0  0  0  0
   -4.6580    0.3293   -0.4824 C   0  0  0  0  0  0  0  0  0  0  0  0
   -4.7314   -0.7341   -1.5587 C   0  0  0  0  0  0  0  0  0  0  0  0
    3.8093   -1.7523   -1.4242 H   0  0  0  0  0  0  0  0  0  0  0  0
    5.5500   -1.8397   -1.1220 H   0  0  0  0  0  0  0  0  0  0  0  0
    4.4027   -2.2145    0.1783 H   0  0  0  0  0  0  0  0  0  0  0  0
    4.6711    0.5217   -1.1590 H   0  0  0  0  0  0  0  0  0  0  0  0
    5.4264    0.0964    0.4075 H   0  0  0  0  0  0  0  0  0  0  0  0
    0.7677    2.9269   -0.0580 H   0  0  0  0  0  0  0  0  0  0  0  0
    0.4054    2.8141    1.6835 H   0  0  0  0  0  0  0  0  0  0  0  0
    3.1829    3.0093    0.3975 H   0  0  0  0  0  0  0  0  0  0  0  0
    2.3761    4.2758    1.3343 H   0  0  0  0  0  0  0  0  0  0  0  0
    2.9007    2.7782    2.1312 H   0  0  0  0  0  0  0  0  0  0  0  0
    0.1397   -2.5780   -1.7541 H   0  0  0  0  0  0  0  0  0  0  0  0
   -0.0352   -0.7878   -1.7484 H   0  0  0  0  0  0  0  0  0  0  0  0
   -2.0072    0.0944    3.5583 H   0  0  0  0  0  0  0  0  0  0  0  0
   -2.8090   -1.1146    2.5195 H   0  0  0  0  0  0  0  0  0  0  0  0
    0.1754   -1.1211    3.2044 H   0  0  0  0  0  0  0  0  0  0  0  0
   -1.0388   -2.1170    4.0251 H   0  0  0  0  0  0  0  0  0  0  0  0
   -0.6837   -2.3780    2.3112 H   0  0  0  0  0  0  0  0  0  0  0  0
   -5.5786    0.3763    0.1012 H   0  0  0  0  0  0  0  0  0  0  0  0
   -4.4457    1.3086   -0.9224 H   0  0  0  0  0  0  0  0  0  0  0  0
   -4.8123   -1.7217   -1.1119 H   0  0  0  0  0  0  0  0  0  0  0  0
   -5.5987   -0.5480   -2.1840 H   0  0  0  0  0  0  0  0  0  0  0  0
   -3.8376   -0.7004   -2.1795 H   0  0  0  0  0  0  0  0  0  0  0  0
  1  2  1  0  0  0  0
  2  3  1  0  0  0  0
  3  4  2  0  0  0  0
  4  5  2  0  0  0  0
  4  6  2  0  0  0  0
  6  7  1  0  0  0  0
  7  8  1  0  0  0  0
  4  9  1  0  0  0  0
  9 10  1  0  0  0  0
 10 11  1  0  0  0  0
 11 12  1  0  0  0  0
 12 13  2  0  0  0  0
 12 14  2  0  0  0  0
 14 15  1  0  0  0  0
 15 16  1  0  0  0  0
 12 17  2  0  0  0  0
 17 18  1  0  0  0  0
 18 19  1  0  0  0  0
  1 20  1  0  0  0  0
  1 21  1  0  0  0  0
  1 22  1  0  0  0  0
  2 23  1  0  0  0  0
  2 24  1  0  0  0  0
  7 25  1  0  0  0  0
  7 26  1  0  0  0  0
  8 27  1  0  0  0  0
  8 28  1  0  0  0  0
  8 29  1  0  0  0  0
 10 30  1  0  0  0  0
 10 31  1  0  0  0  0
 15 32  1  0  0  0  0
 15 33  1  0  0  0  0
 16 34  1  0  0  0  0
 16 35  1  0  0  0  0
 16 36  1  0  0  0  0
 18 37  1  0  0  0  0
 18 38  1  0  0  0  0
 19 39  1  0  0  0  0
 19 40  1  0  0  0  0
 19 41  1  0  0  0  0
M  END
