 xtb: 6.7.1 (edcfbbe)
          04092505203D

 41 40  0     0  0            999 V2000
    3.2241    0.1992    3.3333 C   0  0  0  0  0  0  0  0  0  0  0  0
    1.8864   -0.2514    2.7863 C   0  0  0  0  0  0  0  0  0  0  0  0
    1.6322    0.3428    1.4969 O   0  0  0  0  0  0  0  0  0  0  0  0
    2.3602   -0.1563    0.1807 P   0  0  0  0  0  0  0  0  0  0  0  0
    2.9229   -2.0385    0.2509 S   0  0  0  0  0  0  0  0  0  0  0  0
    3.4878    0.9506    0.0274 O   0  0  0  0  0  0  0  0  0  0  0  0
    4.1636    1.2969   -1.1945 C   0  0  0  0  0  0  0  0  0  0  0  0
    4.7460    0.0946   -1.9084 C   0  0  0  0  0  0  0  0  0  0  0  0
    0.9539    0.3421   -1.3229 S   0  0  0  0  0  0  0  0  0  0  0  0
   -0.0588   -1.1462   -1.1183 C   0  0  0  0  0  0  0  0  0  0  0  0
   -1.1428   -1.0632    0.3222 S   0  0  0  0  0  0  0  0  0  0  0  0
   -2.5185    0.3411   -0.5189 P   0  0  0  0  0  0  0  0  0  0  0  0
   -2.8898    0.0497   -2.4195 S   0  0  0  0  0  0  0  0  0  0  0  0
   -1.9268    1.7823   -0.2658 O   0  0  0  0  0  0  0  0  0  0  0  0
   -2.0561    2.5601    0.9487 C   0  0  0  0  0  0  0  0  0  0  0  0
   -1.3641    1.9109    2.1281 C   0  0  0  0  0  0  0  0  0  0  0  0
   -3.7738    0.3066    0.4526 O   0  0  0  0  0  0  0  0  0  0  0  0
   -4.8636   -0.6173    0.2732 C   0  0  0  0  0  0  0  0  0  0  0  0
   -4.4455   -2.0549    0.5018 C   0  0  0  0  0  0  0  0  0  0  0  0
    3.3694   -0.2172    4.3250 H   0  0  0  0  0  0  0  0  0  0  0  0
    4.0215   -0.1512    2.6787 H   0  0  0  0  0  0  0  0  0  0  0  0
    3.2649    1.2838    3.3834 H   0  0  0  0  0  0  0  0  0  0  0  0
    1.0545    0.0837    3.4067 H   0  0  0  0  0  0  0  0  0  0  0  0
    1.8549   -1.3407    2.6819 H   0  0  0  0  0  0  0  0  0  0  0  0
    3.4528    1.8221   -1.8390 H   0  0  0  0  0  0  0  0  0  0  0  0
    4.9458    1.9850   -0.8685 H   0  0  0  0  0  0  0  0  0  0  0  0
    5.3173    0.4280   -2.7689 H   0  0  0  0  0  0  0  0  0  0  0  0
    5.3956   -0.4665   -1.2406 H   0  0  0  0  0  0  0  0  0  0  0  0
    3.9476   -0.5643   -2.2479 H   0  0  0  0  0  0  0  0  0  0  0  0
    0.5942   -2.0099   -0.9832 H   0  0  0  0  0  0  0  0  0  0  0  0
   -0.6661   -1.2410   -2.0194 H   0  0  0  0  0  0  0  0  0  0  0  0
   -1.5919    3.5112    0.6831 H   0  0  0  0  0  0  0  0  0  0  0  0
   -3.1193    2.7058    1.1491 H   0  0  0  0  0  0  0  0  0  0  0  0
   -1.4197    2.5780    2.9827 H   0  0  0  0  0  0  0  0  0  0  0  0
   -1.8495    0.9690    2.3776 H   0  0  0  0  0  0  0  0  0  0  0  0
   -0.3204    1.7184    1.8909 H   0  0  0  0  0  0  0  0  0  0  0  0
   -5.6015   -0.2905    1.0073 H   0  0  0  0  0  0  0  0  0  0  0  0
   -5.2604   -0.4893   -0.7385 H   0  0  0  0  0  0  0  0  0  0  0  0
   -3.9452   -2.1586    1.4613 H   0  0  0  0  0  0  0  0  0  0  0  0
   -5.3254   -2.6899    0.4831 H   0  0  0  0  0  0  0  0  0  0  0  0
   -3.7645   -2.3751   -0.2853 H   0  0  0  0  0  0  0  0  0  0  0  0
  1  2  1  0  0  0  0
  2  3  1  0  0  0  0
  3  4  2  0  0  0  0
  4  5  2  0  0  0  0
  4  6  2  0  0  0  0
  6  7  1  0  0  0  0
  7  8  1  0  0  0  0
  4  9  1  0  0  0  0
  9 10  1  0  0  0  0
 10 11  1  0  0  0  0
 11 12  1  0  0  0  0
 12 13  2  0  0  0  0
 12 14  2  0  0  0  0
 14 15  1  0  0  0  0
 15 16  1  0  0  0  0
 12 17  2  0  0  0  0
 17 18  1  0  0  0  0
 18 19  1  0  0  0  0
  1 20  1  0  0  0  0
  1 21  1  0  0  0  0
  1 22  1  0  0  0  0
  2 23  1  0  0  0  0
  2 24  1  0  0  0  0
  7 25  1  0  0  0  0
  7 26  1  0  0  0  0
  8 27  1  0  0  0  0
  8 28  1  0  0  0  0
  8 29  1  0  0  0  0
 10 30  1  0  0  0  0
 10 31  1  0  0  0  0
 15 32  1  0  0  0  0
 15 33  1  0  0  0  0
 16 34  1  0  0  0  0
 16 35  1  0  0  0  0
 16 36  1  0  0  0  0
 18 37  1  0  0  0  0
 18 38  1  0  0  0  0
 19 39  1  0  0  0  0
 19 40  1  0  0  0  0
 19 41  1  0  0  0  0
M  END
