 xtb: 6.7.1 (edcfbbe)
          04092505213D

 41 40  0     0  0            999 V2000
    3.9976   -2.0414    0.8465 C   0  0  0  0  0  0  0  0  0  0  0  0
    4.6517   -0.9691    0.0020 C   0  0  0  0  0  0  0  0  0  0  0  0
    3.7352   -0.3618   -0.9436 O   0  0  0  0  0  0  0  0  0  0  0  0
    2.4108    0.4127   -0.5828 P   0  0  0  0  0  0  0  0  0  0  0  0
    1.9120    1.6332   -2.0315 S   0  0  0  0  0  0  0  0  0  0  0  0
    2.7905    1.0773    0.8097 O   0  0  0  0  0  0  0  0  0  0  0  0
    2.0106    2.1091    1.4379 C   0  0  0  0  0  0  0  0  0  0  0  0
    2.9464    2.9572    2.2748 C   0  0  0  0  0  0  0  0  0  0  0  0
    0.9614   -1.0736   -0.1085 S   0  0  0  0  0  0  0  0  0  0  0  0
   -0.1190   -0.9184   -1.5698 C   0  0  0  0  0  0  0  0  0  0  0  0
   -1.8084   -1.4226   -1.2180 S   0  0  0  0  0  0  0  0  0  0  0  0
   -2.4101    0.1574    0.0929 P   0  0  0  0  0  0  0  0  0  0  0  0
   -1.1959    1.6958    0.1496 S   0  0  0  0  0  0  0  0  0  0  0  0
   -2.7205   -0.5086    1.5036 O   0  0  0  0  0  0  0  0  0  0  0  0
   -1.7055   -0.8979    2.4469 C   0  0  0  0  0  0  0  0  0  0  0  0
   -1.3803   -2.3735    2.3223 C   0  0  0  0  0  0  0  0  0  0  0  0
   -3.8491    0.5788   -0.3820 O   0  0  0  0  0  0  0  0  0  0  0  0
   -5.0677   -0.1655   -0.1263 C   0  0  0  0  0  0  0  0  0  0  0  0
   -5.0456   -1.5456   -0.7467 C   0  0  0  0  0  0  0  0  0  0  0  0
    3.2235   -1.6060    1.4761 H   0  0  0  0  0  0  0  0  0  0  0  0
    3.5465   -2.8028    0.2158 H   0  0  0  0  0  0  0  0  0  0  0  0
    4.7515   -2.5003    1.4786 H   0  0  0  0  0  0  0  0  0  0  0  0
    5.4302   -1.3812   -0.6419 H   0  0  0  0  0  0  0  0  0  0  0  0
    5.0665   -0.1766    0.6272 H   0  0  0  0  0  0  0  0  0  0  0  0
    1.5091    2.7021    0.6659 H   0  0  0  0  0  0  0  0  0  0  0  0
    1.2453    1.6303    2.0537 H   0  0  0  0  0  0  0  0  0  0  0  0
    3.6921    3.4271    1.6394 H   0  0  0  0  0  0  0  0  0  0  0  0
    2.3700    3.7266    2.7776 H   0  0  0  0  0  0  0  0  0  0  0  0
    3.4471    2.3388    3.0140 H   0  0  0  0  0  0  0  0  0  0  0  0
    0.2378   -1.5868   -2.3499 H   0  0  0  0  0  0  0  0  0  0  0  0
   -0.0939    0.1230   -1.9012 H   0  0  0  0  0  0  0  0  0  0  0  0
   -0.8166   -0.2789    2.2891 H   0  0  0  0  0  0  0  0  0  0  0  0
   -2.1384   -0.6684    3.4226 H   0  0  0  0  0  0  0  0  0  0  0  0
   -0.6980   -2.6524    3.1183 H   0  0  0  0  0  0  0  0  0  0  0  0
   -2.2891   -2.9623    2.4055 H   0  0  0  0  0  0  0  0  0  0  0  0
   -0.9052   -2.5824    1.3665 H   0  0  0  0  0  0  0  0  0  0  0  0
   -5.2089   -0.2226    0.9542 H   0  0  0  0  0  0  0  0  0  0  0  0
   -5.8390    0.4651   -0.5708 H   0  0  0  0  0  0  0  0  0  0  0  0
   -4.2687   -2.1545   -0.2877 H   0  0  0  0  0  0  0  0  0  0  0  0
   -6.0086   -2.0206   -0.5871 H   0  0  0  0  0  0  0  0  0  0  0  0
   -4.8503   -1.4809   -1.8139 H   0  0  0  0  0  0  0  0  0  0  0  0
  1  2  1  0  0  0  0
  2  3  1  0  0  0  0
  3  4  2  0  0  0  0
  4  5  2  0  0  0  0
  4  6  2  0  0  0  0
  6  7  1  0  0  0  0
  7  8  1  0  0  0  0
  4  9  1  0  0  0  0
  9 10  1  0  0  0  0
 10 11  1  0  0  0  0
 11 12  1  0  0  0  0
 12 13  2  0  0  0  0
 12 14  2  0  0  0  0
 14 15  1  0  0  0  0
 15 16  1  0  0  0  0
 12 17  2  0  0  0  0
 17 18  1  0  0  0  0
 18 19  1  0  0  0  0
  1 20  1  0  0  0  0
  1 21  1  0  0  0  0
  1 22  1  0  0  0  0
  2 23  1  0  0  0  0
  2 24  1  0  0  0  0
  7 25  1  0  0  0  0
  7 26  1  0  0  0  0
  8 27  1  0  0  0  0
  8 28  1  0  0  0  0
  8 29  1  0  0  0  0
 10 30  1  0  0  0  0
 10 31  1  0  0  0  0
 15 32  1  0  0  0  0
 15 33  1  0  0  0  0
 16 34  1  0  0  0  0
 16 35  1  0  0  0  0
 16 36  1  0  0  0  0
 18 37  1  0  0  0  0
 18 38  1  0  0  0  0
 19 39  1  0  0  0  0
 19 40  1  0  0  0  0
 19 41  1  0  0  0  0
M  END
