 xtb: 6.7.1 (edcfbbe)
          04092507313D

 38 37  0     0  0            999 V2000
    4.0421   -1.7857    1.3676 C   0  0  0  0  0  0  0  0  0  0  0  0
    2.8012   -2.4901    0.8440 C   0  0  0  0  0  0  0  0  0  0  0  0
    2.3870   -1.9258   -0.4146 O   0  0  0  0  0  0  0  0  0  0  0  0
    1.5941   -0.8873   -0.4047 C   0  0  0  0  0  0  0  0  0  0  0  0
    1.1811   -0.3272    0.5986 O   0  0  0  0  0  0  0  0  0  0  0  0
    1.2529   -0.3983   -1.7941 C   0  0  0  0  0  0  0  0  0  0  0  0
    0.4524    0.8908   -1.6764 C   0  0  0  0  0  0  0  0  0  0  0  0
    0.4397    1.4180   -2.6350 H   0  0  0  0  0  0  0  0  0  0  0  0
    1.1065    1.8093   -0.6489 C   0  0  0  0  0  0  0  0  0  0  0  0
    2.3069    1.9750   -0.6242 O   0  0  0  0  0  0  0  0  0  0  0  0
    0.2426    2.4253    0.1244 O   0  0  0  0  0  0  0  0  0  0  0  0
    0.7552    3.3795    1.0766 C   0  0  0  0  0  0  0  0  0  0  0  0
    0.9596    4.7375    0.4252 C   0  0  0  0  0  0  0  0  0  0  0  0
   -1.3215    0.6373   -1.3415 S   0  0  0  0  0  0  0  0  0  0  0  0
   -1.5653   -0.7921    0.2135 P   0  0  0  0  0  0  0  0  0  0  0  0
   -0.8345   -2.6015    0.0110 S   0  0  0  0  0  0  0  0  0  0  0  0
   -1.3174   -0.1340    1.6284 O   0  0  0  0  0  0  0  0  0  0  0  0
   -2.0359    1.0389    2.0571 C   0  0  0  0  0  0  0  0  0  0  0  0
   -3.1690   -0.8110    0.2062 O   0  0  0  0  0  0  0  0  0  0  0  0
   -3.9101   -1.4493   -0.8382 C   0  0  0  0  0  0  0  0  0  0  0  0
    4.8461   -1.8574    0.6405 H   0  0  0  0  0  0  0  0  0  0  0  0
    3.8252   -0.7352    1.5510 H   0  0  0  0  0  0  0  0  0  0  0  0
    4.3532   -2.2507    2.2970 H   0  0  0  0  0  0  0  0  0  0  0  0
    1.9701   -2.4066    1.5509 H   0  0  0  0  0  0  0  0  0  0  0  0
    2.9960   -3.5385    0.6186 H   0  0  0  0  0  0  0  0  0  0  0  0
    0.7017   -1.1738   -2.3284 H   0  0  0  0  0  0  0  0  0  0  0  0
    2.1898   -0.2137   -2.3225 H   0  0  0  0  0  0  0  0  0  0  0  0
   -0.0031    3.4223    1.8581 H   0  0  0  0  0  0  0  0  0  0  0  0
    1.6941    2.9907    1.4805 H   0  0  0  0  0  0  0  0  0  0  0  0
    0.0332    5.0764   -0.0302 H   0  0  0  0  0  0  0  0  0  0  0  0
    1.2705    5.4510    1.1810 H   0  0  0  0  0  0  0  0  0  0  0  0
    1.7305    4.6743   -0.3392 H   0  0  0  0  0  0  0  0  0  0  0  0
   -1.9659    1.8181    1.2983 H   0  0  0  0  0  0  0  0  0  0  0  0
   -1.5463    1.3464    2.9776 H   0  0  0  0  0  0  0  0  0  0  0  0
   -3.0785    0.7830    2.2369 H   0  0  0  0  0  0  0  0  0  0  0  0
   -4.9174   -1.5739   -0.4489 H   0  0  0  0  0  0  0  0  0  0  0  0
   -3.4691   -2.4202   -1.0702 H   0  0  0  0  0  0  0  0  0  0  0  0
   -3.9143   -0.8186   -1.7261 H   0  0  0  0  0  0  0  0  0  0  0  0
  1  2  1  0  0  0  0
  2  3  1  0  0  0  0
  3  4  4  0  0  0  0
  4  5  2  0  0  0  0
  4  6  1  0  0  0  0
  6  7  1  0  0  0  0
  7  8  1  0  0  0  0
  7  9  1  0  0  0  0
  9 10  2  0  0  0  0
  9 11  1  0  0  0  0
 11 12  1  0  0  0  0
 12 13  1  0  0  0  0
  7 14  1  0  0  0  0
 14 15  1  0  0  0  0
 15 16  2  0  0  0  0
 15 17  2  0  0  0  0
 17 18  1  0  0  0  0
 15 19  1  0  0  0  0
 19 20  1  0  0  0  0
  1 21  1  0  0  0  0
  1 22  1  0  0  0  0
  1 23  1  0  0  0  0
  2 24  1  0  0  0  0
  2 25  1  0  0  0  0
  6 26  1  0  0  0  0
  6 27  1  0  0  0  0
 12 28  1  0  0  0  0
 12 29  1  0  0  0  0
 13 30  1  0  0  0  0
 13 31  1  0  0  0  0
 13 32  1  0  0  0  0
 18 33  1  0  0  0  0
 18 34  1  0  0  0  0
 18 35  1  0  0  0  0
 20 36  1  0  0  0  0
 20 37  1  0  0  0  0
 20 38  1  0  0  0  0
M  END
