 xtb: 6.7.1 (edcfbbe)
          04032519433D

  9  8  0     0  0            999 V2000
   -2.2763   -0.3325   -0.2636 C   0  0  0  0  0  0  0  0  0  0  0  0
   -1.2361    0.0384    0.4615 C   0  0  0  0  0  0  0  0  0  0  0  0
   -0.0864    0.8073   -0.0829 C   0  0  0  0  0  0  0  0  0  0  0  0
    1.4097   -0.2183   -0.0321 Cl  0  0  0  0  0  0  0  0  0  0  0  0
   -3.0935   -0.8862    0.1633 H   0  0  0  0  0  0  0  0  0  0  0  0
   -2.3525   -0.0887   -1.3097 H   0  0  0  0  0  0  0  0  0  0  0  0
   -1.1653   -0.2242    1.5076 H   0  0  0  0  0  0  0  0  0  0  0  0
   -0.2314    1.0809   -1.1257 H   0  0  0  0  0  0  0  0  0  0  0  0
    0.1432    1.6828    0.5220 H   0  0  0  0  0  0  0  0  0  0  0  0
  1  2  2  0  0  0  0
  2  3  1  0  0  0  0
  3  4  1  0  0  0  0
  1  5  1  0  0  0  0
  1  6  1  0  0  0  0
  2  7  1  0  0  0  0
  3  8  1  0  0  0  0
  3  9  1  0  0  0  0
M  END
