 xtb: 6.7.1 (edcfbbe)
          04092505213D

 41 40  0     0  0            999 V2000
    4.4625   -1.7841   -0.3739 C   0  0  0  0  0  0  0  0  0  0  0  0
    4.8276   -0.3562   -0.0251 C   0  0  0  0  0  0  0  0  0  0  0  0
    3.7014    0.3954    0.4657 O   0  0  0  0  0  0  0  0  0  0  0  0
    2.4322    0.7178   -0.4341 P   0  0  0  0  0  0  0  0  0  0  0  0
    2.7811    1.1747   -2.3011 S   0  0  0  0  0  0  0  0  0  0  0  0
    1.7439    1.9058    0.3379 O   0  0  0  0  0  0  0  0  0  0  0  0
    1.4461    1.8632    1.7551 C   0  0  0  0  0  0  0  0  0  0  0  0
    2.5114    2.5898    2.5482 C   0  0  0  0  0  0  0  0  0  0  0  0
    1.1420   -0.9505   -0.1230 S   0  0  0  0  0  0  0  0  0  0  0  0
    0.0938   -0.6162   -1.5808 C   0  0  0  0  0  0  0  0  0  0  0  0
   -1.4061   -1.6164   -1.5514 S   0  0  0  0  0  0  0  0  0  0  0  0
   -2.4944   -0.4957   -0.1128 P   0  0  0  0  0  0  0  0  0  0  0  0
   -1.8140    1.3021    0.3055 S   0  0  0  0  0  0  0  0  0  0  0  0
   -2.7282   -1.4938    1.1021 O   0  0  0  0  0  0  0  0  0  0  0  0
   -1.6951   -1.9903    1.9735 C   0  0  0  0  0  0  0  0  0  0  0  0
   -1.4025   -1.0186    3.1005 C   0  0  0  0  0  0  0  0  0  0  0  0
   -3.9151   -0.5240   -0.8016 O   0  0  0  0  0  0  0  0  0  0  0  0
   -4.9469    0.4307   -0.4765 C   0  0  0  0  0  0  0  0  0  0  0  0
   -5.4675    0.2336    0.9314 C   0  0  0  0  0  0  0  0  0  0  0  0
    3.9558   -2.2621    0.4608 H   0  0  0  0  0  0  0  0  0  0  0  0
    3.8041   -1.7987   -1.2413 H   0  0  0  0  0  0  0  0  0  0  0  0
    5.3662   -2.3358   -0.6121 H   0  0  0  0  0  0  0  0  0  0  0  0
    5.2302    0.1624   -0.9003 H   0  0  0  0  0  0  0  0  0  0  0  0
    5.5447   -0.3131    0.7958 H   0  0  0  0  0  0  0  0  0  0  0  0
    0.4724    2.3506    1.8429 H   0  0  0  0  0  0  0  0  0  0  0  0
    1.3641    0.8177    2.0661 H   0  0  0  0  0  0  0  0  0  0  0  0
    2.6110    3.6098    2.1875 H   0  0  0  0  0  0  0  0  0  0  0  0
    2.2230    2.6056    3.5944 H   0  0  0  0  0  0  0  0  0  0  0  0
    3.4678    2.0845    2.4446 H   0  0  0  0  0  0  0  0  0  0  0  0
    0.6422   -0.8809   -2.4823 H   0  0  0  0  0  0  0  0  0  0  0  0
   -0.1691    0.4437   -1.5803 H   0  0  0  0  0  0  0  0  0  0  0  0
   -2.1013   -2.9291    2.3545 H   0  0  0  0  0  0  0  0  0  0  0  0
   -0.7929   -2.1940    1.3873 H   0  0  0  0  0  0  0  0  0  0  0  0
   -2.3028   -0.8313    3.6791 H   0  0  0  0  0  0  0  0  0  0  0  0
   -0.6414   -1.4423    3.7473 H   0  0  0  0  0  0  0  0  0  0  0  0
   -1.0426   -0.0734    2.7006 H   0  0  0  0  0  0  0  0  0  0  0  0
   -4.5403    1.4397   -0.6015 H   0  0  0  0  0  0  0  0  0  0  0  0
   -5.7173    0.2469   -1.2263 H   0  0  0  0  0  0  0  0  0  0  0  0
   -4.6769    0.4519    1.6483 H   0  0  0  0  0  0  0  0  0  0  0  0
   -6.3011    0.9066    1.1061 H   0  0  0  0  0  0  0  0  0  0  0  0
   -5.7930   -0.7939    1.0699 H   0  0  0  0  0  0  0  0  0  0  0  0
  1  2  1  0  0  0  0
  2  3  1  0  0  0  0
  3  4  2  0  0  0  0
  4  5  2  0  0  0  0
  4  6  2  0  0  0  0
  6  7  1  0  0  0  0
  7  8  1  0  0  0  0
  4  9  1  0  0  0  0
  9 10  1  0  0  0  0
 10 11  1  0  0  0  0
 11 12  1  0  0  0  0
 12 13  2  0  0  0  0
 12 14  2  0  0  0  0
 14 15  1  0  0  0  0
 15 16  1  0  0  0  0
 12 17  2  0  0  0  0
 17 18  1  0  0  0  0
 18 19  1  0  0  0  0
  1 20  1  0  0  0  0
  1 21  1  0  0  0  0
  1 22  1  0  0  0  0
  2 23  1  0  0  0  0
  2 24  1  0  0  0  0
  7 25  1  0  0  0  0
  7 26  1  0  0  0  0
  8 27  1  0  0  0  0
  8 28  1  0  0  0  0
  8 29  1  0  0  0  0
 10 30  1  0  0  0  0
 10 31  1  0  0  0  0
 15 32  1  0  0  0  0
 15 33  1  0  0  0  0
 16 34  1  0  0  0  0
 16 35  1  0  0  0  0
 16 36  1  0  0  0  0
 18 37  1  0  0  0  0
 18 38  1  0  0  0  0
 19 39  1  0  0  0  0
 19 40  1  0  0  0  0
 19 41  1  0  0  0  0
M  END
