 xtb: 6.7.1 (edcfbbe)
          04092505213D

 41 40  0     0  0            999 V2000
    5.4252   -1.2646   -0.6668 C   0  0  0  0  0  0  0  0  0  0  0  0
    4.1606   -2.0997   -0.7004 C   0  0  0  0  0  0  0  0  0  0  0  0
    3.0453   -1.3690   -1.2541 O   0  0  0  0  0  0  0  0  0  0  0  0
    2.2497   -0.2529   -0.4603 P   0  0  0  0  0  0  0  0  0  0  0  0
    3.0659    1.5115   -0.1834 S   0  0  0  0  0  0  0  0  0  0  0  0
    1.8349   -0.9996    0.8888 O   0  0  0  0  0  0  0  0  0  0  0  0
    1.8573   -0.3991    2.1960 C   0  0  0  0  0  0  0  0  0  0  0  0
    3.0699   -0.8819    2.9666 C   0  0  0  0  0  0  0  0  0  0  0  0
    0.5575   -0.3010   -1.7206 S   0  0  0  0  0  0  0  0  0  0  0  0
   -0.1630    1.2641   -1.1461 C   0  0  0  0  0  0  0  0  0  0  0  0
   -0.7242    1.1854    0.5732 S   0  0  0  0  0  0  0  0  0  0  0  0
   -2.6213    0.2469    0.2582 P   0  0  0  0  0  0  0  0  0  0  0  0
   -3.3411    0.4001   -1.5644 S   0  0  0  0  0  0  0  0  0  0  0  0
   -3.5510    0.8323    1.3925 O   0  0  0  0  0  0  0  0  0  0  0  0
   -4.3743    1.9919    1.1776 C   0  0  0  0  0  0  0  0  0  0  0  0
   -3.5530    3.2621    1.0788 C   0  0  0  0  0  0  0  0  0  0  0  0
   -2.4997   -1.1886    0.9156 O   0  0  0  0  0  0  0  0  0  0  0  0
   -1.5820   -2.2257    0.5347 C   0  0  0  0  0  0  0  0  0  0  0  0
   -1.9384   -2.8539   -0.7982 C   0  0  0  0  0  0  0  0  0  0  0  0
    6.2475   -1.8714   -0.3009 H   0  0  0  0  0  0  0  0  0  0  0  0
    5.6618   -0.9014   -1.6636 H   0  0  0  0  0  0  0  0  0  0  0  0
    5.2971   -0.4050   -0.0113 H   0  0  0  0  0  0  0  0  0  0  0  0
    3.8902   -2.4473    0.3000 H   0  0  0  0  0  0  0  0  0  0  0  0
    4.2666   -2.9540   -1.3712 H   0  0  0  0  0  0  0  0  0  0  0  0
    1.8718    0.6902    2.0903 H   0  0  0  0  0  0  0  0  0  0  0  0
    0.9253   -0.7035    2.6755 H   0  0  0  0  0  0  0  0  0  0  0  0
    3.9806   -0.5407    2.4787 H   0  0  0  0  0  0  0  0  0  0  0  0
    3.0361   -0.4749    3.9719 H   0  0  0  0  0  0  0  0  0  0  0  0
    3.0773   -1.9672    3.0195 H   0  0  0  0  0  0  0  0  0  0  0  0
   -1.0123    1.4745   -1.7976 H   0  0  0  0  0  0  0  0  0  0  0  0
    0.5895    2.0504   -1.1968 H   0  0  0  0  0  0  0  0  0  0  0  0
   -4.9618    1.8406    0.2660 H   0  0  0  0  0  0  0  0  0  0  0  0
   -5.0353    2.0073    2.0452 H   0  0  0  0  0  0  0  0  0  0  0  0
   -4.2184    4.1190    1.0519 H   0  0  0  0  0  0  0  0  0  0  0  0
   -2.8870    3.3481    1.9336 H   0  0  0  0  0  0  0  0  0  0  0  0
   -2.9564    3.2514    0.1676 H   0  0  0  0  0  0  0  0  0  0  0  0
   -0.5648   -1.8221    0.5120 H   0  0  0  0  0  0  0  0  0  0  0  0
   -1.6656   -2.9507    1.3470 H   0  0  0  0  0  0  0  0  0  0  0  0
   -1.2871   -3.7031   -0.9787 H   0  0  0  0  0  0  0  0  0  0  0  0
   -2.9730   -3.1869   -0.7902 H   0  0  0  0  0  0  0  0  0  0  0  0
   -1.8080   -2.1368   -1.6068 H   0  0  0  0  0  0  0  0  0  0  0  0
  1  2  1  0  0  0  0
  2  3  1  0  0  0  0
  3  4  2  0  0  0  0
  4  5  2  0  0  0  0
  4  6  2  0  0  0  0
  6  7  1  0  0  0  0
  7  8  1  0  0  0  0
  4  9  1  0  0  0  0
  9 10  1  0  0  0  0
 10 11  1  0  0  0  0
 11 12  1  0  0  0  0
 12 13  2  0  0  0  0
 12 14  2  0  0  0  0
 14 15  1  0  0  0  0
 15 16  1  0  0  0  0
 12 17  2  0  0  0  0
 17 18  1  0  0  0  0
 18 19  1  0  0  0  0
  1 20  1  0  0  0  0
  1 21  1  0  0  0  0
  1 22  1  0  0  0  0
  2 23  1  0  0  0  0
  2 24  1  0  0  0  0
  7 25  1  0  0  0  0
  7 26  1  0  0  0  0
  8 27  1  0  0  0  0
  8 28  1  0  0  0  0
  8 29  1  0  0  0  0
 10 30  1  0  0  0  0
 10 31  1  0  0  0  0
 15 32  1  0  0  0  0
 15 33  1  0  0  0  0
 16 34  1  0  0  0  0
 16 35  1  0  0  0  0
 16 36  1  0  0  0  0
 18 37  1  0  0  0  0
 18 38  1  0  0  0  0
 19 39  1  0  0  0  0
 19 40  1  0  0  0  0
 19 41  1  0  0  0  0
M  END
