 xtb: 6.7.1 (edcfbbe)
          04092505213D

 41 40  0     0  0            999 V2000
    2.1667    1.1623   -2.7145 C   0  0  0  0  0  0  0  0  0  0  0  0
    2.7196    1.0071   -1.3126 C   0  0  0  0  0  0  0  0  0  0  0  0
    1.8643    0.0913   -0.5961 O   0  0  0  0  0  0  0  0  0  0  0  0
    1.8071    0.0877    0.9867 P   0  0  0  0  0  0  0  0  0  0  0  0
    1.7880    1.8242    1.8944 S   0  0  0  0  0  0  0  0  0  0  0  0
    3.1333   -0.7587    1.2967 O   0  0  0  0  0  0  0  0  0  0  0  0
    3.7366   -0.7871    2.5979 C   0  0  0  0  0  0  0  0  0  0  0  0
    2.8752   -1.5218    3.6056 C   0  0  0  0  0  0  0  0  0  0  0  0
    0.1993   -1.2328    1.3354 S   0  0  0  0  0  0  0  0  0  0  0  0
    0.2651   -2.2677   -0.1399 C   0  0  0  0  0  0  0  0  0  0  0  0
   -0.3300   -1.4918   -1.7019 S   0  0  0  0  0  0  0  0  0  0  0  0
   -1.6364    0.0352   -1.0966 P   0  0  0  0  0  0  0  0  0  0  0  0
   -2.5676    0.8423   -2.6191 S   0  0  0  0  0  0  0  0  0  0  0  0
   -0.7352    1.0468   -0.2605 O   0  0  0  0  0  0  0  0  0  0  0  0
   -1.1312    2.4274   -0.1191 C   0  0  0  0  0  0  0  0  0  0  0  0
   -2.3328    2.5678    0.7890 C   0  0  0  0  0  0  0  0  0  0  0  0
   -2.5377   -0.6031    0.0530 O   0  0  0  0  0  0  0  0  0  0  0  0
   -3.5436   -1.5943   -0.2360 C   0  0  0  0  0  0  0  0  0  0  0  0
   -4.9044   -0.9485   -0.4110 C   0  0  0  0  0  0  0  0  0  0  0  0
    2.7977    1.8444   -3.2747 H   0  0  0  0  0  0  0  0  0  0  0  0
    2.1392    0.1981   -3.2150 H   0  0  0  0  0  0  0  0  0  0  0  0
    1.1545    1.5608   -2.6798 H   0  0  0  0  0  0  0  0  0  0  0  0
    2.7358    1.9633   -0.7777 H   0  0  0  0  0  0  0  0  0  0  0  0
    3.7275    0.5852   -1.3245 H   0  0  0  0  0  0  0  0  0  0  0  0
    4.6912   -1.2900    2.4375 H   0  0  0  0  0  0  0  0  0  0  0  0
    3.9091    0.2448    2.9205 H   0  0  0  0  0  0  0  0  0  0  0  0
    2.6491   -2.5251    3.2543 H   0  0  0  0  0  0  0  0  0  0  0  0
    3.4018   -1.5810    4.5526 H   0  0  0  0  0  0  0  0  0  0  0  0
    1.9393   -0.9828    3.7544 H   0  0  0  0  0  0  0  0  0  0  0  0
   -0.3646   -3.1273    0.0771 H   0  0  0  0  0  0  0  0  0  0  0  0
    1.2903   -2.5697   -0.3404 H   0  0  0  0  0  0  0  0  0  0  0  0
   -0.2494    2.9146    0.3016 H   0  0  0  0  0  0  0  0  0  0  0  0
   -1.3438    2.8307   -1.1146 H   0  0  0  0  0  0  0  0  0  0  0  0
   -2.1327    2.0938    1.7470 H   0  0  0  0  0  0  0  0  0  0  0  0
   -2.5430    3.6214    0.9436 H   0  0  0  0  0  0  0  0  0  0  0  0
   -3.1987    2.0930    0.3298 H   0  0  0  0  0  0  0  0  0  0  0  0
   -3.2581   -2.1478   -1.1367 H   0  0  0  0  0  0  0  0  0  0  0  0
   -3.5288   -2.2604    0.6289 H   0  0  0  0  0  0  0  0  0  0  0  0
   -5.1647   -0.3790    0.4769 H   0  0  0  0  0  0  0  0  0  0  0  0
   -4.8962   -0.2797   -1.2691 H   0  0  0  0  0  0  0  0  0  0  0  0
   -5.6487   -1.7214   -0.5731 H   0  0  0  0  0  0  0  0  0  0  0  0
  1  2  1  0  0  0  0
  2  3  1  0  0  0  0
  3  4  1  0  0  0  0
  4  5  2  0  0  0  0
  4  6  1  0  0  0  0
  6  7  1  0  0  0  0
  7  8  1  0  0  0  0
  4  9  1  0  0  0  0
  9 10  1  0  0  0  0
 10 11  1  0  0  0  0
 11 12  1  0  0  0  0
 12 13  2  0  0  0  0
 12 14  1  0  0  0  0
 14 15  1  0  0  0  0
 15 16  1  0  0  0  0
 12 17  2  0  0  0  0
 17 18  1  0  0  0  0
 18 19  1  0  0  0  0
  1 20  1  0  0  0  0
  1 21  1  0  0  0  0
  1 22  1  0  0  0  0
  2 23  1  0  0  0  0
  2 24  1  0  0  0  0
  7 25  1  0  0  0  0
  7 26  1  0  0  0  0
  8 27  1  0  0  0  0
  8 28  1  0  0  0  0
  8 29  1  0  0  0  0
 10 30  1  0  0  0  0
 10 31  1  0  0  0  0
 15 32  1  0  0  0  0
 15 33  1  0  0  0  0
 16 34  1  0  0  0  0
 16 35  1  0  0  0  0
 16 36  1  0  0  0  0
 18 37  1  0  0  0  0
 18 38  1  0  0  0  0
 19 39  1  0  0  0  0
 19 40  1  0  0  0  0
 19 41  1  0  0  0  0
M  END
