 xtb: 6.7.1 (edcfbbe)
          04092505213D

 41 40  0     0  0            999 V2000
    5.0010   -1.4413   -0.2372 C   0  0  0  0  0  0  0  0  0  0  0  0
    3.9024   -1.7863    0.7458 C   0  0  0  0  0  0  0  0  0  0  0  0
    3.0452   -0.6561    1.0041 O   0  0  0  0  0  0  0  0  0  0  0  0
    1.9826   -0.1272   -0.0467 P   0  0  0  0  0  0  0  0  0  0  0  0
    1.2001   -1.5411   -1.1598 S   0  0  0  0  0  0  0  0  0  0  0  0
    2.7746    1.0176   -0.8077 O   0  0  0  0  0  0  0  0  0  0  0  0
    2.4744    1.5200   -2.1243 C   0  0  0  0  0  0  0  0  0  0  0  0
    3.3133    0.8129   -3.1709 C   0  0  0  0  0  0  0  0  0  0  0  0
    0.8359    0.9969    1.3344 S   0  0  0  0  0  0  0  0  0  0  0  0
   -0.0287   -0.3670    2.1558 C   0  0  0  0  0  0  0  0  0  0  0  0
   -1.3339   -1.1630    1.1567 S   0  0  0  0  0  0  0  0  0  0  0  0
   -2.0926    0.4863    0.0340 P   0  0  0  0  0  0  0  0  0  0  0  0
   -1.0677    1.2268   -1.4660 S   0  0  0  0  0  0  0  0  0  0  0  0
   -2.4517    1.6143    1.0742 O   0  0  0  0  0  0  0  0  0  0  0  0
   -3.5849    1.6055    1.9823 C   0  0  0  0  0  0  0  0  0  0  0  0
   -3.2356    0.9817    3.3183 C   0  0  0  0  0  0  0  0  0  0  0  0
   -3.5163   -0.0721   -0.3996 O   0  0  0  0  0  0  0  0  0  0  0  0
   -3.7137   -0.8219   -1.6120 C   0  0  0  0  0  0  0  0  0  0  0  0
   -2.9992   -2.1571   -1.5830 C   0  0  0  0  0  0  0  0  0  0  0  0
    4.5696   -1.2372   -1.2154 H   0  0  0  0  0  0  0  0  0  0  0  0
    5.5420   -0.5609    0.0995 H   0  0  0  0  0  0  0  0  0  0  0  0
    5.6863   -2.2790   -0.3205 H   0  0  0  0  0  0  0  0  0  0  0  0
    4.3030   -2.0413    1.7279 H   0  0  0  0  0  0  0  0  0  0  0  0
    3.2872   -2.6082    0.3649 H   0  0  0  0  0  0  0  0  0  0  0  0
    1.4081    1.3990   -2.3326 H   0  0  0  0  0  0  0  0  0  0  0  0
    2.7116    2.5841   -2.0720 H   0  0  0  0  0  0  0  0  0  0  0  0
    3.0440   -0.2406   -3.2160 H   0  0  0  0  0  0  0  0  0  0  0  0
    3.1220    1.2644   -4.1389 H   0  0  0  0  0  0  0  0  0  0  0  0
    4.3693    0.9051   -2.9314 H   0  0  0  0  0  0  0  0  0  0  0  0
   -0.4749    0.0604    3.0507 H   0  0  0  0  0  0  0  0  0  0  0  0
    0.6784   -1.1543    2.4114 H   0  0  0  0  0  0  0  0  0  0  0  0
   -3.8270    2.6639    2.0917 H   0  0  0  0  0  0  0  0  0  0  0  0
   -4.4139    1.0830    1.5033 H   0  0  0  0  0  0  0  0  0  0  0  0
   -4.0786    1.1078    3.9909 H   0  0  0  0  0  0  0  0  0  0  0  0
   -3.0327   -0.0807    3.2064 H   0  0  0  0  0  0  0  0  0  0  0  0
   -2.3671    1.4767    3.7454 H   0  0  0  0  0  0  0  0  0  0  0  0
   -4.7963   -0.9440   -1.6666 H   0  0  0  0  0  0  0  0  0  0  0  0
   -3.3621   -0.2163   -2.4533 H   0  0  0  0  0  0  0  0  0  0  0  0
   -3.2681   -2.7139   -0.6887 H   0  0  0  0  0  0  0  0  0  0  0  0
   -3.2727   -2.7306   -2.4627 H   0  0  0  0  0  0  0  0  0  0  0  0
   -1.9191   -2.0067   -1.5896 H   0  0  0  0  0  0  0  0  0  0  0  0
  1  2  1  0  0  0  0
  2  3  1  0  0  0  0
  3  4  2  0  0  0  0
  4  5  2  0  0  0  0
  4  6  2  0  0  0  0
  6  7  1  0  0  0  0
  7  8  1  0  0  0  0
  4  9  1  0  0  0  0
  9 10  1  0  0  0  0
 10 11  1  0  0  0  0
 11 12  1  0  0  0  0
 12 13  2  0  0  0  0
 12 14  2  0  0  0  0
 14 15  1  0  0  0  0
 15 16  1  0  0  0  0
 12 17  2  0  0  0  0
 17 18  1  0  0  0  0
 18 19  1  0  0  0  0
  1 20  1  0  0  0  0
  1 21  1  0  0  0  0
  1 22  1  0  0  0  0
  2 23  1  0  0  0  0
  2 24  1  0  0  0  0
  7 25  1  0  0  0  0
  7 26  1  0  0  0  0
  8 27  1  0  0  0  0
  8 28  1  0  0  0  0
  8 29  1  0  0  0  0
 10 30  1  0  0  0  0
 10 31  1  0  0  0  0
 15 32  1  0  0  0  0
 15 33  1  0  0  0  0
 16 34  1  0  0  0  0
 16 35  1  0  0  0  0
 16 36  1  0  0  0  0
 18 37  1  0  0  0  0
 18 38  1  0  0  0  0
 19 39  1  0  0  0  0
 19 40  1  0  0  0  0
 19 41  1  0  0  0  0
M  END
