 xtb: 6.7.1 (edcfbbe)
          04092507313D

 38 37  0     0  0            999 V2000
    4.2681   -1.8684    0.3116 C   0  0  0  0  0  0  0  0  0  0  0  0
    2.8613   -2.3319   -0.0308 C   0  0  0  0  0  0  0  0  0  0  0  0
    2.0568   -1.2403   -0.5178 O   0  0  0  0  0  0  0  0  0  0  0  0
    2.1488   -0.9190   -1.8001 C   0  0  0  0  0  0  0  0  0  0  0  0
    2.8512   -1.5002   -2.5949 O   0  0  0  0  0  0  0  0  0  0  0  0
    1.2886    0.2727   -2.1651 C   0  0  0  0  0  0  0  0  0  0  0  0
    0.2271    0.6024   -1.1263 C   0  0  0  0  0  0  0  0  0  0  0  0
   -0.2940    1.5266   -1.3998 H   0  0  0  0  0  0  0  0  0  0  0  0
    0.7969    0.7936    0.2658 C   0  0  0  0  0  0  0  0  0  0  0  0
    0.2611    0.3433    1.2593 O   0  0  0  0  0  0  0  0  0  0  0  0
    1.8754    1.5275    0.2680 O   0  0  0  0  0  0  0  0  0  0  0  0
    2.4868    1.8096    1.5449 C   0  0  0  0  0  0  0  0  0  0  0  0
    3.8326    2.4565    1.2872 C   0  0  0  0  0  0  0  0  0  0  0  0
   -1.0321   -0.7172   -1.0251 S   0  0  0  0  0  0  0  0  0  0  0  0
   -2.2520    0.1410    0.4901 P   0  0  0  0  0  0  0  0  0  0  0  0
   -2.2018    2.0888    0.6818 S   0  0  0  0  0  0  0  0  0  0  0  0
   -3.6975   -0.3785    0.0061 O   0  0  0  0  0  0  0  0  0  0  0  0
   -4.3168    0.1377   -1.1744 C   0  0  0  0  0  0  0  0  0  0  0  0
   -2.1535   -0.6720    1.8403 O   0  0  0  0  0  0  0  0  0  0  0  0
   -2.2638   -2.1070    1.8843 C   0  0  0  0  0  0  0  0  0  0  0  0
    4.7703   -1.5102   -0.5841 H   0  0  0  0  0  0  0  0  0  0  0  0
    4.2346   -1.0684    1.0466 H   0  0  0  0  0  0  0  0  0  0  0  0
    4.8284   -2.7030    0.7199 H   0  0  0  0  0  0  0  0  0  0  0  0
    2.3307   -2.6876    0.8531 H   0  0  0  0  0  0  0  0  0  0  0  0
    2.8863   -3.1091   -0.7995 H   0  0  0  0  0  0  0  0  0  0  0  0
    0.8272    0.0724   -3.1329 H   0  0  0  0  0  0  0  0  0  0  0  0
    1.9548    1.1318   -2.2778 H   0  0  0  0  0  0  0  0  0  0  0  0
    1.8152    2.4704    2.1016 H   0  0  0  0  0  0  0  0  0  0  0  0
    2.5772    0.8686    2.0961 H   0  0  0  0  0  0  0  0  0  0  0  0
    3.7008    3.3773    0.7275 H   0  0  0  0  0  0  0  0  0  0  0  0
    4.3082    2.6802    2.2362 H   0  0  0  0  0  0  0  0  0  0  0  0
    4.4694    1.7867    0.7166 H   0  0  0  0  0  0  0  0  0  0  0  0
   -5.3461   -0.2100   -1.1423 H   0  0  0  0  0  0  0  0  0  0  0  0
   -3.8077   -0.2464   -2.0584 H   0  0  0  0  0  0  0  0  0  0  0  0
   -4.2828    1.2286   -1.1677 H   0  0  0  0  0  0  0  0  0  0  0  0
   -1.5437   -2.5578    1.2008 H   0  0  0  0  0  0  0  0  0  0  0  0
   -3.2746   -2.4088    1.6153 H   0  0  0  0  0  0  0  0  0  0  0  0
   -2.0362   -2.3757    2.9126 H   0  0  0  0  0  0  0  0  0  0  0  0
  1  2  1  0  0  0  0
  2  3  1  0  0  0  0
  3  4  1  0  0  0  0
  4  5  2  0  0  0  0
  4  6  1  0  0  0  0
  6  7  1  0  0  0  0
  7  8  1  0  0  0  0
  7  9  1  0  0  0  0
  9 10  2  0  0  0  0
  9 11  4  0  0  0  0
 11 12  1  0  0  0  0
 12 13  1  0  0  0  0
  7 14  1  0  0  0  0
 14 15  1  0  0  0  0
 15 16  2  0  0  0  0
 15 17  1  0  0  0  0
 17 18  1  0  0  0  0
 15 19  2  0  0  0  0
 19 20  1  0  0  0  0
  1 21  1  0  0  0  0
  1 22  1  0  0  0  0
  1 23  1  0  0  0  0
  2 24  1  0  0  0  0
  2 25  1  0  0  0  0
  6 26  1  0  0  0  0
  6 27  1  0  0  0  0
 12 28  1  0  0  0  0
 12 29  1  0  0  0  0
 13 30  1  0  0  0  0
 13 31  1  0  0  0  0
 13 32  1  0  0  0  0
 18 33  1  0  0  0  0
 18 34  1  0  0  0  0
 18 35  1  0  0  0  0
 20 36  1  0  0  0  0
 20 37  1  0  0  0  0
 20 38  1  0  0  0  0
M  END
