 xtb: 6.7.1 (edcfbbe)
          04092505213D

 41 40  0     0  0            999 V2000
    1.1527   -0.7803   -3.0403 C   0  0  0  0  0  0  0  0  0  0  0  0
    1.7989   -1.3453   -1.7924 C   0  0  0  0  0  0  0  0  0  0  0  0
    2.2697   -0.2357   -0.9888 O   0  0  0  0  0  0  0  0  0  0  0  0
    2.4867   -0.3294    0.5720 P   0  0  0  0  0  0  0  0  0  0  0  0
    3.1871    1.3663    1.2482 S   0  0  0  0  0  0  0  0  0  0  0  0
    3.4062   -1.6234    0.6681 O   0  0  0  0  0  0  0  0  0  0  0  0
    3.6296   -2.4056    1.8579 C   0  0  0  0  0  0  0  0  0  0  0  0
    4.0873   -1.5705    3.0348 C   0  0  0  0  0  0  0  0  0  0  0  0
    0.6540   -0.9963    1.4264 S   0  0  0  0  0  0  0  0  0  0  0  0
   -0.0927    0.6385    1.6225 C   0  0  0  0  0  0  0  0  0  0  0  0
   -0.2503    1.5658    0.0645 S   0  0  0  0  0  0  0  0  0  0  0  0
   -1.9903    0.6304   -0.7012 P   0  0  0  0  0  0  0  0  0  0  0  0
   -2.5363    1.2459   -2.4779 S   0  0  0  0  0  0  0  0  0  0  0  0
   -3.0565    0.7820    0.4795 O   0  0  0  0  0  0  0  0  0  0  0  0
   -3.7660    2.0161    0.6963 C   0  0  0  0  0  0  0  0  0  0  0  0
   -5.1185    1.9856    0.0110 C   0  0  0  0  0  0  0  0  0  0  0  0
   -1.6008   -0.8957   -0.5730 O   0  0  0  0  0  0  0  0  0  0  0  0
   -2.2801   -1.9180   -1.3355 C   0  0  0  0  0  0  0  0  0  0  0  0
   -3.7203   -2.0748   -0.8987 C   0  0  0  0  0  0  0  0  0  0  0  0
    0.2904   -0.1671   -2.7819 H   0  0  0  0  0  0  0  0  0  0  0  0
    1.8622   -0.1577   -3.5777 H   0  0  0  0  0  0  0  0  0  0  0  0
    0.8305   -1.5959   -3.6797 H   0  0  0  0  0  0  0  0  0  0  0  0
    2.6628   -1.9666   -2.0355 H   0  0  0  0  0  0  0  0  0  0  0  0
    1.0859   -1.9293   -1.2017 H   0  0  0  0  0  0  0  0  0  0  0  0
    2.7014   -2.9327    2.0952 H   0  0  0  0  0  0  0  0  0  0  0  0
    4.3961   -3.1201    1.5527 H   0  0  0  0  0  0  0  0  0  0  0  0
    4.3169   -2.2225    3.8714 H   0  0  0  0  0  0  0  0  0  0  0  0
    4.9719   -0.9955    2.7714 H   0  0  0  0  0  0  0  0  0  0  0  0
    3.3033   -0.8747    3.3297 H   0  0  0  0  0  0  0  0  0  0  0  0
    0.5487    1.2489    2.2575 H   0  0  0  0  0  0  0  0  0  0  0  0
   -1.0736    0.4849    2.0651 H   0  0  0  0  0  0  0  0  0  0  0  0
   -3.8738    2.0932    1.7801 H   0  0  0  0  0  0  0  0  0  0  0  0
   -3.1608    2.8514    0.3294 H   0  0  0  0  0  0  0  0  0  0  0  0
   -5.6949    1.1337    0.3605 H   0  0  0  0  0  0  0  0  0  0  0  0
   -5.6555    2.9006    0.2389 H   0  0  0  0  0  0  0  0  0  0  0  0
   -4.9918    1.9099   -1.0668 H   0  0  0  0  0  0  0  0  0  0  0  0
   -2.2235   -1.6536   -2.3960 H   0  0  0  0  0  0  0  0  0  0  0  0
   -1.6961   -2.8183   -1.1401 H   0  0  0  0  0  0  0  0  0  0  0  0
   -4.2774   -1.1707   -1.1403 H   0  0  0  0  0  0  0  0  0  0  0  0
   -4.1662   -2.9148   -1.4221 H   0  0  0  0  0  0  0  0  0  0  0  0
   -3.7716   -2.2459    0.1733 H   0  0  0  0  0  0  0  0  0  0  0  0
  1  2  1  0  0  0  0
  2  3  1  0  0  0  0
  3  4  2  0  0  0  0
  4  5  2  0  0  0  0
  4  6  2  0  0  0  0
  6  7  1  0  0  0  0
  7  8  1  0  0  0  0
  4  9  1  0  0  0  0
  9 10  1  0  0  0  0
 10 11  1  0  0  0  0
 11 12  1  0  0  0  0
 12 13  2  0  0  0  0
 12 14  1  0  0  0  0
 14 15  1  0  0  0  0
 15 16  1  0  0  0  0
 12 17  2  0  0  0  0
 17 18  1  0  0  0  0
 18 19  1  0  0  0  0
  1 20  1  0  0  0  0
  1 21  1  0  0  0  0
  1 22  1  0  0  0  0
  2 23  1  0  0  0  0
  2 24  1  0  0  0  0
  7 25  1  0  0  0  0
  7 26  1  0  0  0  0
  8 27  1  0  0  0  0
  8 28  1  0  0  0  0
  8 29  1  0  0  0  0
 10 30  1  0  0  0  0
 10 31  1  0  0  0  0
 15 32  1  0  0  0  0
 15 33  1  0  0  0  0
 16 34  1  0  0  0  0
 16 35  1  0  0  0  0
 16 36  1  0  0  0  0
 18 37  1  0  0  0  0
 18 38  1  0  0  0  0
 19 39  1  0  0  0  0
 19 40  1  0  0  0  0
 19 41  1  0  0  0  0
M  END
