 xtb: 6.7.1 (edcfbbe)
          04092505213D

 41 40  0     0  0            999 V2000
    2.5967    2.4389   -0.1554 C   0  0  0  0  0  0  0  0  0  0  0  0
    2.8995    1.9855    1.2566 C   0  0  0  0  0  0  0  0  0  0  0  0
    2.2550    0.7292    1.5917 O   0  0  0  0  0  0  0  0  0  0  0  0
    2.5015   -0.6629    0.9051 P   0  0  0  0  0  0  0  0  0  0  0  0
    1.9348   -2.1371    2.0639 S   0  0  0  0  0  0  0  0  0  0  0  0
    4.0442   -0.6121    0.5416 O   0  0  0  0  0  0  0  0  0  0  0  0
    4.7118   -1.7597   -0.0264 C   0  0  0  0  0  0  0  0  0  0  0  0
    6.2047   -1.5235    0.0764 C   0  0  0  0  0  0  0  0  0  0  0  0
    1.5459   -0.6911   -1.0068 S   0  0  0  0  0  0  0  0  0  0  0  0
   -0.0920   -1.1018   -0.3873 C   0  0  0  0  0  0  0  0  0  0  0  0
   -0.8400    0.3029    0.5034 S   0  0  0  0  0  0  0  0  0  0  0  0
   -2.7020    0.3593   -0.4932 P   0  0  0  0  0  0  0  0  0  0  0  0
   -2.7879   -0.3791   -2.3123 S   0  0  0  0  0  0  0  0  0  0  0  0
   -3.1960    1.8606   -0.3433 O   0  0  0  0  0  0  0  0  0  0  0  0
   -2.8917    2.8676   -1.3267 C   0  0  0  0  0  0  0  0  0  0  0  0
   -1.4108    3.1818   -1.3829 C   0  0  0  0  0  0  0  0  0  0  0  0
   -3.5802   -0.3946    0.5891 O   0  0  0  0  0  0  0  0  0  0  0  0
   -4.8740   -0.9543    0.2807 C   0  0  0  0  0  0  0  0  0  0  0  0
   -5.9005    0.1183   -0.0172 C   0  0  0  0  0  0  0  0  0  0  0  0
    1.5224    2.4547   -0.3223 H   0  0  0  0  0  0  0  0  0  0  0  0
    2.9947    3.4387   -0.2979 H   0  0  0  0  0  0  0  0  0  0  0  0
    3.0548    1.7679   -0.8788 H   0  0  0  0  0  0  0  0  0  0  0  0
    2.4874    2.6735    1.9964 H   0  0  0  0  0  0  0  0  0  0  0  0
    3.9732    1.8677    1.4110 H   0  0  0  0  0  0  0  0  0  0  0  0
    4.4048   -2.6511    0.5302 H   0  0  0  0  0  0  0  0  0  0  0  0
    4.3909   -1.8593   -1.0666 H   0  0  0  0  0  0  0  0  0  0  0  0
    6.4773   -0.6220   -0.4643 H   0  0  0  0  0  0  0  0  0  0  0  0
    6.4948   -1.4132    1.1175 H   0  0  0  0  0  0  0  0  0  0  0  0
    6.7283   -2.3715   -0.3525 H   0  0  0  0  0  0  0  0  0  0  0  0
   -0.0056   -1.9454    0.2990 H   0  0  0  0  0  0  0  0  0  0  0  0
   -0.7116   -1.3463   -1.2524 H   0  0  0  0  0  0  0  0  0  0  0  0
   -3.2466    2.5167   -2.3009 H   0  0  0  0  0  0  0  0  0  0  0  0
   -3.4761    3.7307   -1.0054 H   0  0  0  0  0  0  0  0  0  0  0  0
   -1.2459    4.0243   -2.0469 H   0  0  0  0  0  0  0  0  0  0  0  0
   -1.0421    3.4257   -0.3893 H   0  0  0  0  0  0  0  0  0  0  0  0
   -0.8626    2.3204   -1.7645 H   0  0  0  0  0  0  0  0  0  0  0  0
   -4.7624   -1.6310   -0.5727 H   0  0  0  0  0  0  0  0  0  0  0  0
   -5.1296   -1.5243    1.1749 H   0  0  0  0  0  0  0  0  0  0  0  0
   -5.9277    0.8456    0.7899 H   0  0  0  0  0  0  0  0  0  0  0  0
   -5.6454    0.6295   -0.9445 H   0  0  0  0  0  0  0  0  0  0  0  0
   -6.8784   -0.3407   -0.1250 H   0  0  0  0  0  0  0  0  0  0  0  0
  1  2  1  0  0  0  0
  2  3  1  0  0  0  0
  3  4  2  0  0  0  0
  4  5  2  0  0  0  0
  4  6  2  0  0  0  0
  6  7  1  0  0  0  0
  7  8  1  0  0  0  0
  4  9  1  0  0  0  0
  9 10  1  0  0  0  0
 10 11  1  0  0  0  0
 11 12  1  0  0  0  0
 12 13  2  0  0  0  0
 12 14  2  0  0  0  0
 14 15  1  0  0  0  0
 15 16  1  0  0  0  0
 12 17  2  0  0  0  0
 17 18  1  0  0  0  0
 18 19  1  0  0  0  0
  1 20  1  0  0  0  0
  1 21  1  0  0  0  0
  1 22  1  0  0  0  0
  2 23  1  0  0  0  0
  2 24  1  0  0  0  0
  7 25  1  0  0  0  0
  7 26  1  0  0  0  0
  8 27  1  0  0  0  0
  8 28  1  0  0  0  0
  8 29  1  0  0  0  0
 10 30  1  0  0  0  0
 10 31  1  0  0  0  0
 15 32  1  0  0  0  0
 15 33  1  0  0  0  0
 16 34  1  0  0  0  0
 16 35  1  0  0  0  0
 16 36  1  0  0  0  0
 18 37  1  0  0  0  0
 18 38  1  0  0  0  0
 19 39  1  0  0  0  0
 19 40  1  0  0  0  0
 19 41  1  0  0  0  0
M  END
