 xtb: 6.7.1 (edcfbbe)
          04092505203D

 41 40  0     0  0            999 V2000
    4.1695    0.6697   -2.3773 C   0  0  0  0  0  0  0  0  0  0  0  0
    2.7981    0.0519   -2.5483 C   0  0  0  0  0  0  0  0  0  0  0  0
    2.4336   -0.7557   -1.4086 O   0  0  0  0  0  0  0  0  0  0  0  0
    2.0670   -0.1239   -0.0057 P   0  0  0  0  0  0  0  0  0  0  0  0
    1.2927    1.6832   -0.0641 S   0  0  0  0  0  0  0  0  0  0  0  0
    3.4528   -0.1594    0.7761 O   0  0  0  0  0  0  0  0  0  0  0  0
    3.6684    0.5788    1.9883 C   0  0  0  0  0  0  0  0  0  0  0  0
    2.8303    0.0444    3.1324 C   0  0  0  0  0  0  0  0  0  0  0  0
    1.0791   -1.7967    0.8299 S   0  0  0  0  0  0  0  0  0  0  0  0
   -0.1543   -2.1593   -0.4692 C   0  0  0  0  0  0  0  0  0  0  0  0
   -0.8724   -0.7050   -1.2635 S   0  0  0  0  0  0  0  0  0  0  0  0
   -2.0844   -0.0077    0.3601 P   0  0  0  0  0  0  0  0  0  0  0  0
   -1.2729    0.3398    2.1036 S   0  0  0  0  0  0  0  0  0  0  0  0
   -3.1909   -1.1215    0.4877 O   0  0  0  0  0  0  0  0  0  0  0  0
   -4.0779   -1.5178   -0.5895 C   0  0  0  0  0  0  0  0  0  0  0  0
   -5.3921   -0.7691   -0.5075 C   0  0  0  0  0  0  0  0  0  0  0  0
   -2.8679    1.2109   -0.2856 O   0  0  0  0  0  0  0  0  0  0  0  0
   -2.2960    2.5182   -0.4828 C   0  0  0  0  0  0  0  0  0  0  0  0
   -1.8051    2.6804   -1.9072 C   0  0  0  0  0  0  0  0  0  0  0  0
    4.4479    1.1879   -3.2895 H   0  0  0  0  0  0  0  0  0  0  0  0
    4.1519    1.3838   -1.5550 H   0  0  0  0  0  0  0  0  0  0  0  0
    4.9039   -0.1004   -2.1569 H   0  0  0  0  0  0  0  0  0  0  0  0
    2.7669   -0.6475   -3.3844 H   0  0  0  0  0  0  0  0  0  0  0  0
    2.0373    0.8277   -2.6806 H   0  0  0  0  0  0  0  0  0  0  0  0
    4.7359    0.4640    2.1811 H   0  0  0  0  0  0  0  0  0  0  0  0
    3.4327    1.6321    1.8015 H   0  0  0  0  0  0  0  0  0  0  0  0
    1.7698    0.2055    2.9296 H   0  0  0  0  0  0  0  0  0  0  0  0
    2.9997   -1.0220    3.2607 H   0  0  0  0  0  0  0  0  0  0  0  0
    3.0903    0.5653    4.0482 H   0  0  0  0  0  0  0  0  0  0  0  0
   -0.9343   -2.7417    0.0188 H   0  0  0  0  0  0  0  0  0  0  0  0
    0.3268   -2.7279   -1.2618 H   0  0  0  0  0  0  0  0  0  0  0  0
   -3.5785   -1.3387   -1.5454 H   0  0  0  0  0  0  0  0  0  0  0  0
   -4.2236   -2.5891   -0.4392 H   0  0  0  0  0  0  0  0  0  0  0  0
   -6.0599   -1.1401   -1.2787 H   0  0  0  0  0  0  0  0  0  0  0  0
   -5.8476   -0.9226    0.4669 H   0  0  0  0  0  0  0  0  0  0  0  0
   -5.2300    0.2953   -0.6533 H   0  0  0  0  0  0  0  0  0  0  0  0
   -3.1087    3.2120   -0.2606 H   0  0  0  0  0  0  0  0  0  0  0  0
   -1.4826    2.6696    0.2338 H   0  0  0  0  0  0  0  0  0  0  0  0
   -2.6069    2.4671   -2.6081 H   0  0  0  0  0  0  0  0  0  0  0  0
   -1.4600    3.6995   -2.0468 H   0  0  0  0  0  0  0  0  0  0  0  0
   -0.9750    2.0038   -2.0988 H   0  0  0  0  0  0  0  0  0  0  0  0
  1  2  1  0  0  0  0
  2  3  1  0  0  0  0
  3  4  2  0  0  0  0
  4  5  2  0  0  0  0
  4  6  2  0  0  0  0
  6  7  1  0  0  0  0
  7  8  1  0  0  0  0
  4  9  1  0  0  0  0
  9 10  1  0  0  0  0
 10 11  1  0  0  0  0
 11 12  1  0  0  0  0
 12 13  2  0  0  0  0
 12 14  2  0  0  0  0
 14 15  1  0  0  0  0
 15 16  1  0  0  0  0
 12 17  2  0  0  0  0
 17 18  1  0  0  0  0
 18 19  1  0  0  0  0
  1 20  1  0  0  0  0
  1 21  1  0  0  0  0
  1 22  1  0  0  0  0
  2 23  1  0  0  0  0
  2 24  1  0  0  0  0
  7 25  1  0  0  0  0
  7 26  1  0  0  0  0
  8 27  1  0  0  0  0
  8 28  1  0  0  0  0
  8 29  1  0  0  0  0
 10 30  1  0  0  0  0
 10 31  1  0  0  0  0
 15 32  1  0  0  0  0
 15 33  1  0  0  0  0
 16 34  1  0  0  0  0
 16 35  1  0  0  0  0
 16 36  1  0  0  0  0
 18 37  1  0  0  0  0
 18 38  1  0  0  0  0
 19 39  1  0  0  0  0
 19 40  1  0  0  0  0
 19 41  1  0  0  0  0
M  END
