 xtb: 6.7.1 (edcfbbe)
          04092507313D

 38 37  0     0  0            999 V2000
    4.6691    0.2971    0.5683 C   0  0  0  0  0  0  0  0  0  0  0  0
    4.4143   -0.7659   -0.4856 C   0  0  0  0  0  0  0  0  0  0  0  0
    3.0243   -0.7218   -0.8711 O   0  0  0  0  0  0  0  0  0  0  0  0
    2.3190   -1.8407   -0.8808 C   0  0  0  0  0  0  0  0  0  0  0  0
    2.7713   -2.9353   -0.6322 O   0  0  0  0  0  0  0  0  0  0  0  0
    0.8715   -1.6001   -1.2543 C   0  0  0  0  0  0  0  0  0  0  0  0
    0.5252   -0.1220   -1.2552 C   0  0  0  0  0  0  0  0  0  0  0  0
    1.0325    0.4234   -2.0527 H   0  0  0  0  0  0  0  0  0  0  0  0
    0.8357    0.5332    0.0752 C   0  0  0  0  0  0  0  0  0  0  0  0
    0.8495   -0.0619    1.1317 O   0  0  0  0  0  0  0  0  0  0  0  0
    1.0500    1.8208   -0.0571 O   0  0  0  0  0  0  0  0  0  0  0  0
    1.3281    2.5822    1.1369 C   0  0  0  0  0  0  0  0  0  0  0  0
    1.2915    4.0539    0.7765 C   0  0  0  0  0  0  0  0  0  0  0  0
   -1.2539    0.1626   -1.5693 S   0  0  0  0  0  0  0  0  0  0  0  0
   -2.1144   -0.1890    0.3479 P   0  0  0  0  0  0  0  0  0  0  0  0
   -1.7507   -1.8751    1.2736 S   0  0  0  0  0  0  0  0  0  0  0  0
   -1.8362    1.1063    1.2179 O   0  0  0  0  0  0  0  0  0  0  0  0
   -2.2925    2.4131    0.7996 C   0  0  0  0  0  0  0  0  0  0  0  0
   -3.6566    0.0234   -0.0082 O   0  0  0  0  0  0  0  0  0  0  0  0
   -4.3975   -0.9739   -0.7216 C   0  0  0  0  0  0  0  0  0  0  0  0
    4.0408    0.1160    1.4382 H   0  0  0  0  0  0  0  0  0  0  0  0
    5.7106    0.2612    0.8697 H   0  0  0  0  0  0  0  0  0  0  0  0
    4.4451    1.2811    0.1658 H   0  0  0  0  0  0  0  0  0  0  0  0
    4.6376   -1.7690   -0.1116 H   0  0  0  0  0  0  0  0  0  0  0  0
    4.9941   -0.5727   -1.3912 H   0  0  0  0  0  0  0  0  0  0  0  0
    0.2646   -2.1435   -0.5232 H   0  0  0  0  0  0  0  0  0  0  0  0
    0.6840   -2.0403   -2.2350 H   0  0  0  0  0  0  0  0  0  0  0  0
    0.5850    2.3155    1.8952 H   0  0  0  0  0  0  0  0  0  0  0  0
    2.3127    2.2805    1.5064 H   0  0  0  0  0  0  0  0  0  0  0  0
    2.0298    4.2646    0.0090 H   0  0  0  0  0  0  0  0  0  0  0  0
    0.3101    4.3298    0.4034 H   0  0  0  0  0  0  0  0  0  0  0  0
    1.5166    4.6413    1.6603 H   0  0  0  0  0  0  0  0  0  0  0  0
   -1.8434    2.6737   -0.1591 H   0  0  0  0  0  0  0  0  0  0  0  0
   -1.9652    3.0917    1.5832 H   0  0  0  0  0  0  0  0  0  0  0  0
   -3.3769    2.4146    0.7165 H   0  0  0  0  0  0  0  0  0  0  0  0
   -4.1697   -1.9647   -0.3253 H   0  0  0  0  0  0  0  0  0  0  0  0
   -4.1484   -0.9281   -1.7809 H   0  0  0  0  0  0  0  0  0  0  0  0
   -5.4450   -0.7320   -0.5614 H   0  0  0  0  0  0  0  0  0  0  0  0
  1  2  1  0  0  0  0
  2  3  1  0  0  0  0
  3  4  1  0  0  0  0
  4  5  2  0  0  0  0
  4  6  1  0  0  0  0
  6  7  1  0  0  0  0
  7  8  1  0  0  0  0
  7  9  1  0  0  0  0
  9 10  2  0  0  0  0
  9 11  4  0  0  0  0
 11 12  1  0  0  0  0
 12 13  1  0  0  0  0
  7 14  1  0  0  0  0
 14 15  1  0  0  0  0
 15 16  2  0  0  0  0
 15 17  2  0  0  0  0
 17 18  1  0  0  0  0
 15 19  2  0  0  0  0
 19 20  1  0  0  0  0
  1 21  1  0  0  0  0
  1 22  1  0  0  0  0
  1 23  1  0  0  0  0
  2 24  1  0  0  0  0
  2 25  1  0  0  0  0
  6 26  1  0  0  0  0
  6 27  1  0  0  0  0
 12 28  1  0  0  0  0
 12 29  1  0  0  0  0
 13 30  1  0  0  0  0
 13 31  1  0  0  0  0
 13 32  1  0  0  0  0
 18 33  1  0  0  0  0
 18 34  1  0  0  0  0
 18 35  1  0  0  0  0
 20 36  1  0  0  0  0
 20 37  1  0  0  0  0
 20 38  1  0  0  0  0
M  END
