 xtb: 6.7.1 (edcfbbe)
          04032519393D

  8  7  0     0  0            999 V2000
    0.7233   -0.6337    0.0045 C   0  0  0  0  0  0  0  0  0  0  0  0
   -0.6095    0.0299    0.4135 C   0  0  0  0  0  0  0  0  0  0  0  0
   -1.1657   -0.6922    1.4100 F   0  0  0  0  0  0  0  0  0  0  0  0
   -1.7142    0.0369   -0.9646 Cl  0  0  0  0  0  0  0  0  0  0  0  0
   -0.2991    1.6650    1.0044 Cl  0  0  0  0  0  0  0  0  0  0  0  0
    1.5478   -0.7021    1.0596 F   0  0  0  0  0  0  0  0  0  0  0  0
    0.5090   -1.8988   -0.3842 F   0  0  0  0  0  0  0  0  0  0  0  0
    1.4972    0.2673   -1.2990 Cl  0  0  0  0  0  0  0  0  0  0  0  0
  1  2  1  0  0  0  0
  2  3  1  0  0  0  0
  2  4  1  0  0  0  0
  2  5  1  0  0  0  0
  1  6  1  0  0  0  0
  1  7  1  0  0  0  0
  1  8  1  0  0  0  0
M  END
