 xtb: 6.7.1 (edcfbbe)
          04032520063D

 19 19  0     0  0            999 V2000
    2.3417    0.0023    0.2483 C   0  0  0  0  0  0  0  0  0  0  0  0
    0.8965    0.0018    0.2795 N   0  0  0  0  0  0  0  0  0  0  0  0
    0.3402    1.1879   -0.3516 C   0  0  0  0  0  0  0  0  0  0  0  0
   -1.1965    1.1927   -0.1611 C   0  0  0  0  0  0  0  0  0  0  0  0
   -1.6722   -0.0013    0.5127 N   0  0  0  0  0  0  0  0  0  0  0  0
   -1.1972   -1.1835   -0.1816 C   0  0  0  0  0  0  0  0  0  0  0  0
    0.3444   -1.1993   -0.3268 C   0  0  0  0  0  0  0  0  0  0  0  0
    2.7074    0.8920    0.7580 H   0  0  0  0  0  0  0  0  0  0  0  0
    2.7434   -0.0061   -0.7780 H   0  0  0  0  0  0  0  0  0  0  0  0
    2.7078   -0.8791    0.7721 H   0  0  0  0  0  0  0  0  0  0  0  0
    0.7873    2.0613    0.1272 H   0  0  0  0  0  0  0  0  0  0  0  0
    0.5975    1.2217   -1.4269 H   0  0  0  0  0  0  0  0  0  0  0  0
   -1.5082    2.0577    0.4246 H   0  0  0  0  0  0  0  0  0  0  0  0
   -1.6956    1.2409   -1.1333 H   0  0  0  0  0  0  0  0  0  0  0  0
   -1.2895   -0.0103    1.4540 H   0  0  0  0  0  0  0  0  0  0  0  0
   -1.5394   -2.0603    0.3686 H   0  0  0  0  0  0  0  0  0  0  0  0
   -1.6689   -1.1941   -1.1683 H   0  0  0  0  0  0  0  0  0  0  0  0
    0.7693   -2.0592    0.1953 H   0  0  0  0  0  0  0  0  0  0  0  0
    0.6314   -1.2735   -1.3924 H   0  0  0  0  0  0  0  0  0  0  0  0
  1  2  1  0  0  0  0
  2  3  1  0  0  0  0
  3  4  1  0  0  0  0
  4  5  1  0  0  0  0
  5  6  1  0  0  0  0
  2  7  1  0  0  0  0
  6  7  1  0  0  0  0
  1  8  1  0  0  0  0
  1  9  1  0  0  0  0
  1 10  1  0  0  0  0
  3 11  1  0  0  0  0
  3 12  1  0  0  0  0
  4 13  1  0  0  0  0
  4 14  1  0  0  0  0
  5 15  1  0  0  0  0
  6 16  1  0  0  0  0
  6 17  1  0  0  0  0
  7 18  1  0  0  0  0
  7 19  1  0  0  0  0
M  END
