 xtb: 6.7.1 (edcfbbe)
          04092505213D

 41 40  0     0  0            999 V2000
    5.0234   -1.1865   -1.8224 C   0  0  0  0  0  0  0  0  0  0  0  0
    4.6672   -0.2891   -0.6546 C   0  0  0  0  0  0  0  0  0  0  0  0
    3.5018    0.5132   -0.9682 O   0  0  0  0  0  0  0  0  0  0  0  0
    2.0591    0.2188   -0.3821 P   0  0  0  0  0  0  0  0  0  0  0  0
    0.8301    1.6121   -0.9885 S   0  0  0  0  0  0  0  0  0  0  0  0
    2.2017    0.0521    1.2033 O   0  0  0  0  0  0  0  0  0  0  0  0
    2.0998    1.1733    2.0987 C   0  0  0  0  0  0  0  0  0  0  0  0
    3.3089    2.0797    1.9986 C   0  0  0  0  0  0  0  0  0  0  0  0
    1.7449   -1.8062   -0.8717 S   0  0  0  0  0  0  0  0  0  0  0  0
    0.1787   -2.1519   -0.0293 C   0  0  0  0  0  0  0  0  0  0  0  0
   -1.2963   -1.7910   -1.0390 S   0  0  0  0  0  0  0  0  0  0  0  0
   -2.1471   -0.1744    0.0172 P   0  0  0  0  0  0  0  0  0  0  0  0
   -1.2629    0.2445    1.7228 S   0  0  0  0  0  0  0  0  0  0  0  0
   -3.6853   -0.5632    0.1722 O   0  0  0  0  0  0  0  0  0  0  0  0
   -4.1653   -1.4206    1.2269 C   0  0  0  0  0  0  0  0  0  0  0  0
   -4.8004   -0.5970    2.3305 C   0  0  0  0  0  0  0  0  0  0  0  0
   -2.2355    0.8887   -1.1427 O   0  0  0  0  0  0  0  0  0  0  0  0
   -3.1204    2.0294   -1.1542 C   0  0  0  0  0  0  0  0  0  0  0  0
   -2.8159    2.9976   -0.0305 C   0  0  0  0  0  0  0  0  0  0  0  0
    5.9426   -1.7167   -1.5945 H   0  0  0  0  0  0  0  0  0  0  0  0
    4.2297   -1.9081   -2.0034 H   0  0  0  0  0  0  0  0  0  0  0  0
    5.1652   -0.5893   -2.7188 H   0  0  0  0  0  0  0  0  0  0  0  0
    5.4578    0.4385   -0.4617 H   0  0  0  0  0  0  0  0  0  0  0  0
    4.4689   -0.8711    0.2487 H   0  0  0  0  0  0  0  0  0  0  0  0
    1.1814    1.7222    1.8680 H   0  0  0  0  0  0  0  0  0  0  0  0
    2.0062    0.7161    3.0848 H   0  0  0  0  0  0  0  0  0  0  0  0
    4.2193    1.5205    2.1985 H   0  0  0  0  0  0  0  0  0  0  0  0
    3.3644    2.5090    0.9983 H   0  0  0  0  0  0  0  0  0  0  0  0
    3.2133    2.8833    2.7219 H   0  0  0  0  0  0  0  0  0  0  0  0
    0.1236   -1.5753    0.8987 H   0  0  0  0  0  0  0  0  0  0  0  0
    0.1813   -3.2210    0.1642 H   0  0  0  0  0  0  0  0  0  0  0  0
   -4.8929   -2.0770    0.7466 H   0  0  0  0  0  0  0  0  0  0  0  0
   -3.3353   -2.0161    1.6166 H   0  0  0  0  0  0  0  0  0  0  0  0
   -4.0517    0.0375    2.8000 H   0  0  0  0  0  0  0  0  0  0  0  0
   -5.5906    0.0285    1.9247 H   0  0  0  0  0  0  0  0  0  0  0  0
   -5.2174   -1.2634    3.0784 H   0  0  0  0  0  0  0  0  0  0  0  0
   -2.9315    2.4808   -2.1296 H   0  0  0  0  0  0  0  0  0  0  0  0
   -4.1494    1.6664   -1.0995 H   0  0  0  0  0  0  0  0  0  0  0  0
   -3.0232    2.5347    0.9335 H   0  0  0  0  0  0  0  0  0  0  0  0
   -1.7645    3.2780   -0.0625 H   0  0  0  0  0  0  0  0  0  0  0  0
   -3.4300    3.8857   -0.1392 H   0  0  0  0  0  0  0  0  0  0  0  0
  1  2  1  0  0  0  0
  2  3  1  0  0  0  0
  3  4  2  0  0  0  0
  4  5  2  0  0  0  0
  4  6  1  0  0  0  0
  6  7  1  0  0  0  0
  7  8  1  0  0  0  0
  4  9  1  0  0  0  0
  9 10  1  0  0  0  0
 10 11  1  0  0  0  0
 11 12  1  0  0  0  0
 12 13  2  0  0  0  0
 12 14  2  0  0  0  0
 14 15  1  0  0  0  0
 15 16  1  0  0  0  0
 12 17  2  0  0  0  0
 17 18  1  0  0  0  0
 18 19  1  0  0  0  0
  1 20  1  0  0  0  0
  1 21  1  0  0  0  0
  1 22  1  0  0  0  0
  2 23  1  0  0  0  0
  2 24  1  0  0  0  0
  7 25  1  0  0  0  0
  7 26  1  0  0  0  0
  8 27  1  0  0  0  0
  8 28  1  0  0  0  0
  8 29  1  0  0  0  0
 10 30  1  0  0  0  0
 10 31  1  0  0  0  0
 15 32  1  0  0  0  0
 15 33  1  0  0  0  0
 16 34  1  0  0  0  0
 16 35  1  0  0  0  0
 16 36  1  0  0  0  0
 18 37  1  0  0  0  0
 18 38  1  0  0  0  0
 19 39  1  0  0  0  0
 19 40  1  0  0  0  0
 19 41  1  0  0  0  0
M  END
