 xtb: 6.7.1 (edcfbbe)
          04092505213D

 41 40  0     0  0            999 V2000
    3.0100   -2.4831    1.7485 C   0  0  0  0  0  0  0  0  0  0  0  0
    1.7470   -2.2967    0.9351 C   0  0  0  0  0  0  0  0  0  0  0  0
    1.3501   -0.9117    0.9016 O   0  0  0  0  0  0  0  0  0  0  0  0
    2.1427    0.1710    0.0665 P   0  0  0  0  0  0  0  0  0  0  0  0
    3.2012   -0.4761   -1.4560 S   0  0  0  0  0  0  0  0  0  0  0  0
    2.9622    0.9012    1.2107 O   0  0  0  0  0  0  0  0  0  0  0  0
    3.8977    1.9588    0.9144 C   0  0  0  0  0  0  0  0  0  0  0  0
    4.7690    2.1623    2.1372 C   0  0  0  0  0  0  0  0  0  0  0  0
    0.6270    1.5749   -0.4028 S   0  0  0  0  0  0  0  0  0  0  0  0
    0.0757    0.7617   -1.9233 C   0  0  0  0  0  0  0  0  0  0  0  0
   -0.6136   -0.8860   -1.6109 S   0  0  0  0  0  0  0  0  0  0  0  0
   -2.3313   -0.2451   -0.5569 P   0  0  0  0  0  0  0  0  0  0  0  0
   -3.1076    1.4471   -1.1823 S   0  0  0  0  0  0  0  0  0  0  0  0
   -2.0292   -0.2878    1.0072 O   0  0  0  0  0  0  0  0  0  0  0  0
   -1.9843    0.8694    1.8698 C   0  0  0  0  0  0  0  0  0  0  0  0
   -0.8668    0.7014    2.8782 C   0  0  0  0  0  0  0  0  0  0  0  0
   -3.1276   -1.5955   -0.7863 O   0  0  0  0  0  0  0  0  0  0  0  0
   -4.2205   -2.0379    0.0469 C   0  0  0  0  0  0  0  0  0  0  0  0
   -5.4135   -1.1066   -0.0268 C   0  0  0  0  0  0  0  0  0  0  0  0
    3.8359   -1.9640    1.2632 H   0  0  0  0  0  0  0  0  0  0  0  0
    2.8778   -2.0769    2.7476 H   0  0  0  0  0  0  0  0  0  0  0  0
    3.2465   -3.5405    1.8132 H   0  0  0  0  0  0  0  0  0  0  0  0
    0.8914   -2.8054    1.3812 H   0  0  0  0  0  0  0  0  0  0  0  0
    1.8875   -2.6455   -0.0932 H   0  0  0  0  0  0  0  0  0  0  0  0
    4.4895    1.6655    0.0408 H   0  0  0  0  0  0  0  0  0  0  0  0
    3.3286    2.8608    0.6736 H   0  0  0  0  0  0  0  0  0  0  0  0
    5.3283    1.2569    2.3544 H   0  0  0  0  0  0  0  0  0  0  0  0
    5.4629    2.9747    1.9480 H   0  0  0  0  0  0  0  0  0  0  0  0
    4.1501    2.4089    2.9947 H   0  0  0  0  0  0  0  0  0  0  0  0
    0.9235    0.6276   -2.5946 H   0  0  0  0  0  0  0  0  0  0  0  0
   -0.6875    1.4033   -2.3645 H   0  0  0  0  0  0  0  0  0  0  0  0
   -1.8472    1.7685    1.2613 H   0  0  0  0  0  0  0  0  0  0  0  0
   -2.9546    0.9258    2.3698 H   0  0  0  0  0  0  0  0  0  0  0  0
    0.0984    0.6666    2.3794 H   0  0  0  0  0  0  0  0  0  0  0  0
   -0.8824    1.5449    3.5606 H   0  0  0  0  0  0  0  0  0  0  0  0
   -1.0052   -0.2192    3.4378 H   0  0  0  0  0  0  0  0  0  0  0  0
   -4.4594   -3.0253   -0.3518 H   0  0  0  0  0  0  0  0  0  0  0  0
   -3.8575   -2.1301    1.0734 H   0  0  0  0  0  0  0  0  0  0  0  0
   -5.1516   -0.1252    0.3671 H   0  0  0  0  0  0  0  0  0  0  0  0
   -5.7341   -0.9855   -1.0587 H   0  0  0  0  0  0  0  0  0  0  0  0
   -6.2303   -1.5184    0.5576 H   0  0  0  0  0  0  0  0  0  0  0  0
  1  2  1  0  0  0  0
  2  3  1  0  0  0  0
  3  4  2  0  0  0  0
  4  5  2  0  0  0  0
  4  6  2  0  0  0  0
  6  7  1  0  0  0  0
  7  8  1  0  0  0  0
  4  9  1  0  0  0  0
  9 10  1  0  0  0  0
 10 11  1  0  0  0  0
 11 12  1  0  0  0  0
 12 13  2  0  0  0  0
 12 14  2  0  0  0  0
 14 15  1  0  0  0  0
 15 16  1  0  0  0  0
 12 17  2  0  0  0  0
 17 18  1  0  0  0  0
 18 19  1  0  0  0  0
  1 20  1  0  0  0  0
  1 21  1  0  0  0  0
  1 22  1  0  0  0  0
  2 23  1  0  0  0  0
  2 24  1  0  0  0  0
  7 25  1  0  0  0  0
  7 26  1  0  0  0  0
  8 27  1  0  0  0  0
  8 28  1  0  0  0  0
  8 29  1  0  0  0  0
 10 30  1  0  0  0  0
 10 31  1  0  0  0  0
 15 32  1  0  0  0  0
 15 33  1  0  0  0  0
 16 34  1  0  0  0  0
 16 35  1  0  0  0  0
 16 36  1  0  0  0  0
 18 37  1  0  0  0  0
 18 38  1  0  0  0  0
 19 39  1  0  0  0  0
 19 40  1  0  0  0  0
 19 41  1  0  0  0  0
M  END
