 xtb: 6.7.1 (edcfbbe)
          04092505203D

 41 40  0     0  0            999 V2000
    2.4484    0.0631   -2.9297 C   0  0  0  0  0  0  0  0  0  0  0  0
    3.4480    0.3249   -1.8215 C   0  0  0  0  0  0  0  0  0  0  0  0
    3.2127   -0.5170   -0.6824 O   0  0  0  0  0  0  0  0  0  0  0  0
    1.9559   -0.3357    0.2749 P   0  0  0  0  0  0  0  0  0  0  0  0
    1.5663    1.5470    0.6895 S   0  0  0  0  0  0  0  0  0  0  0  0
    2.3300   -1.2322    1.5246 O   0  0  0  0  0  0  0  0  0  0  0  0
    2.9909   -0.6922    2.6875 C   0  0  0  0  0  0  0  0  0  0  0  0
    4.4324   -0.3347    2.3941 C   0  0  0  0  0  0  0  0  0  0  0  0
    0.5440   -1.6492   -0.5939 S   0  0  0  0  0  0  0  0  0  0  0  0
   -0.5512   -1.9154    0.8305 C   0  0  0  0  0  0  0  0  0  0  0  0
   -1.2367   -0.3857    1.5308 S   0  0  0  0  0  0  0  0  0  0  0  0
   -2.1430    0.4105   -0.2101 P   0  0  0  0  0  0  0  0  0  0  0  0
   -1.1372    1.2517   -1.6743 S   0  0  0  0  0  0  0  0  0  0  0  0
   -3.2462    1.3769    0.4074 O   0  0  0  0  0  0  0  0  0  0  0  0
   -3.0025    2.7686    0.6647 C   0  0  0  0  0  0  0  0  0  0  0  0
   -2.0214    2.9684    1.8024 C   0  0  0  0  0  0  0  0  0  0  0  0
   -3.0138   -0.8430   -0.6191 O   0  0  0  0  0  0  0  0  0  0  0  0
   -3.3387   -1.2041   -1.9802 C   0  0  0  0  0  0  0  0  0  0  0  0
   -2.7413   -2.5593   -2.3036 C   0  0  0  0  0  0  0  0  0  0  0  0
    2.7269    0.6312   -3.8113 H   0  0  0  0  0  0  0  0  0  0  0  0
    2.4229   -0.9962   -3.1731 H   0  0  0  0  0  0  0  0  0  0  0  0
    1.4508    0.3755   -2.6178 H   0  0  0  0  0  0  0  0  0  0  0  0
    3.3995    1.3708   -1.4994 H   0  0  0  0  0  0  0  0  0  0  0  0
    4.4650    0.0759   -2.1275 H   0  0  0  0  0  0  0  0  0  0  0  0
    2.4339    0.1877    3.0252 H   0  0  0  0  0  0  0  0  0  0  0  0
    2.9131   -1.4899    3.4272 H   0  0  0  0  0  0  0  0  0  0  0  0
    4.9222   -0.0285    3.3131 H   0  0  0  0  0  0  0  0  0  0  0  0
    4.9531   -1.1896    1.9710 H   0  0  0  0  0  0  0  0  0  0  0  0
    4.4704    0.4882    1.6814 H   0  0  0  0  0  0  0  0  0  0  0  0
    0.0030   -2.3951    1.6339 H   0  0  0  0  0  0  0  0  0  0  0  0
   -1.3613   -2.5489    0.4758 H   0  0  0  0  0  0  0  0  0  0  0  0
   -2.6260    3.2320   -0.2535 H   0  0  0  0  0  0  0  0  0  0  0  0
   -3.9883    3.1683    0.9063 H   0  0  0  0  0  0  0  0  0  0  0  0
   -2.3478    2.4217    2.6837 H   0  0  0  0  0  0  0  0  0  0  0  0
   -1.0326    2.6089    1.5136 H   0  0  0  0  0  0  0  0  0  0  0  0
   -1.9486    4.0253    2.0375 H   0  0  0  0  0  0  0  0  0  0  0  0
   -4.4286   -1.2220   -2.0298 H   0  0  0  0  0  0  0  0  0  0  0  0
   -2.9515   -0.4338   -2.6550 H   0  0  0  0  0  0  0  0  0  0  0  0
   -1.6552   -2.5155   -2.2417 H   0  0  0  0  0  0  0  0  0  0  0  0
   -3.1092   -3.3081   -1.6076 H   0  0  0  0  0  0  0  0  0  0  0  0
   -3.0273   -2.8390   -3.3122 H   0  0  0  0  0  0  0  0  0  0  0  0
  1  2  1  0  0  0  0
  2  3  1  0  0  0  0
  3  4  2  0  0  0  0
  4  5  2  0  0  0  0
  4  6  2  0  0  0  0
  6  7  1  0  0  0  0
  7  8  1  0  0  0  0
  4  9  1  0  0  0  0
  9 10  1  0  0  0  0
 10 11  1  0  0  0  0
 11 12  1  0  0  0  0
 12 13  2  0  0  0  0
 12 14  2  0  0  0  0
 14 15  1  0  0  0  0
 15 16  1  0  0  0  0
 12 17  2  0  0  0  0
 17 18  1  0  0  0  0
 18 19  1  0  0  0  0
  1 20  1  0  0  0  0
  1 21  1  0  0  0  0
  1 22  1  0  0  0  0
  2 23  1  0  0  0  0
  2 24  1  0  0  0  0
  7 25  1  0  0  0  0
  7 26  1  0  0  0  0
  8 27  1  0  0  0  0
  8 28  1  0  0  0  0
  8 29  1  0  0  0  0
 10 30  1  0  0  0  0
 10 31  1  0  0  0  0
 15 32  1  0  0  0  0
 15 33  1  0  0  0  0
 16 34  1  0  0  0  0
 16 35  1  0  0  0  0
 16 36  1  0  0  0  0
 18 37  1  0  0  0  0
 18 38  1  0  0  0  0
 19 39  1  0  0  0  0
 19 40  1  0  0  0  0
 19 41  1  0  0  0  0
M  END
