 xtb: 6.7.1 (edcfbbe)
          04092505203D

 41 40  0     0  0            999 V2000
    3.6726    1.3079   -1.3869 C   0  0  0  0  0  0  0  0  0  0  0  0
    3.2211    2.0563   -0.1508 C   0  0  0  0  0  0  0  0  0  0  0  0
    1.9779    1.5449    0.3862 O   0  0  0  0  0  0  0  0  0  0  0  0
    1.7676    0.0889    0.9624 P   0  0  0  0  0  0  0  0  0  0  0  0
    0.3164   -0.0179    2.2761 S   0  0  0  0  0  0  0  0  0  0  0  0
    3.2147   -0.1992    1.5708 O   0  0  0  0  0  0  0  0  0  0  0  0
    3.4536   -1.2032    2.5700 C   0  0  0  0  0  0  0  0  0  0  0  0
    3.1904   -2.6064    2.0623 C   0  0  0  0  0  0  0  0  0  0  0  0
    1.6332   -1.2376   -0.7042 S   0  0  0  0  0  0  0  0  0  0  0  0
    0.0005   -1.9668   -0.4372 C   0  0  0  0  0  0  0  0  0  0  0  0
   -1.2018   -1.5132   -1.7314 S   0  0  0  0  0  0  0  0  0  0  0  0
   -2.0463    0.2046   -0.8841 P   0  0  0  0  0  0  0  0  0  0  0  0
   -3.4608    1.0884   -1.9085 S   0  0  0  0  0  0  0  0  0  0  0  0
   -0.7300    1.0620   -0.6089 O   0  0  0  0  0  0  0  0  0  0  0  0
   -0.8657    2.4678   -0.2952 C   0  0  0  0  0  0  0  0  0  0  0  0
   -0.4348    3.3025   -1.4826 C   0  0  0  0  0  0  0  0  0  0  0  0
   -2.4775   -0.1760    0.6058 O   0  0  0  0  0  0  0  0  0  0  0  0
   -3.8001   -0.6393    0.9210 C   0  0  0  0  0  0  0  0  0  0  0  0
   -4.0396   -2.0485    0.4170 C   0  0  0  0  0  0  0  0  0  0  0  0
    3.9299    0.2806   -1.1348 H   0  0  0  0  0  0  0  0  0  0  0  0
    2.8842    1.2939   -2.1360 H   0  0  0  0  0  0  0  0  0  0  0  0
    4.5474    1.8006   -1.8000 H   0  0  0  0  0  0  0  0  0  0  0  0
    2.9859    3.0985   -0.3739 H   0  0  0  0  0  0  0  0  0  0  0  0
    3.9795    2.0071    0.6327 H   0  0  0  0  0  0  0  0  0  0  0  0
    4.5030   -1.0617    2.8325 H   0  0  0  0  0  0  0  0  0  0  0  0
    2.8210   -0.9845    3.4359 H   0  0  0  0  0  0  0  0  0  0  0  0
    2.1242   -2.7449    1.8898 H   0  0  0  0  0  0  0  0  0  0  0  0
    3.7256   -2.7818    1.1327 H   0  0  0  0  0  0  0  0  0  0  0  0
    3.5196   -3.3221    2.8088 H   0  0  0  0  0  0  0  0  0  0  0  0
   -0.3759   -1.6487    0.5389 H   0  0  0  0  0  0  0  0  0  0  0  0
    0.1022   -3.0465   -0.5019 H   0  0  0  0  0  0  0  0  0  0  0  0
   -1.9058    2.6745   -0.0256 H   0  0  0  0  0  0  0  0  0  0  0  0
   -0.2289    2.6353    0.5751 H   0  0  0  0  0  0  0  0  0  0  0  0
    0.5783    3.0389   -1.7729 H   0  0  0  0  0  0  0  0  0  0  0  0
   -1.1023    3.1222   -2.3230 H   0  0  0  0  0  0  0  0  0  0  0  0
   -0.4745    4.3532   -1.2142 H   0  0  0  0  0  0  0  0  0  0  0  0
   -3.8441   -0.5835    2.0098 H   0  0  0  0  0  0  0  0  0  0  0  0
   -4.5230    0.0554    0.4808 H   0  0  0  0  0  0  0  0  0  0  0  0
   -5.0219   -2.3799    0.7379 H   0  0  0  0  0  0  0  0  0  0  0  0
   -3.9991   -2.0649   -0.6720 H   0  0  0  0  0  0  0  0  0  0  0  0
   -3.2857   -2.7256    0.8102 H   0  0  0  0  0  0  0  0  0  0  0  0
  1  2  1  0  0  0  0
  2  3  1  0  0  0  0
  3  4  2  0  0  0  0
  4  5  2  0  0  0  0
  4  6  2  0  0  0  0
  6  7  1  0  0  0  0
  7  8  1  0  0  0  0
  4  9  1  0  0  0  0
  9 10  1  0  0  0  0
 10 11  1  0  0  0  0
 11 12  1  0  0  0  0
 12 13  2  0  0  0  0
 12 14  1  0  0  0  0
 14 15  1  0  0  0  0
 15 16  1  0  0  0  0
 12 17  2  0  0  0  0
 17 18  1  0  0  0  0
 18 19  1  0  0  0  0
  1 20  1  0  0  0  0
  1 21  1  0  0  0  0
  1 22  1  0  0  0  0
  2 23  1  0  0  0  0
  2 24  1  0  0  0  0
  7 25  1  0  0  0  0
  7 26  1  0  0  0  0
  8 27  1  0  0  0  0
  8 28  1  0  0  0  0
  8 29  1  0  0  0  0
 10 30  1  0  0  0  0
 10 31  1  0  0  0  0
 15 32  1  0  0  0  0
 15 33  1  0  0  0  0
 16 34  1  0  0  0  0
 16 35  1  0  0  0  0
 16 36  1  0  0  0  0
 18 37  1  0  0  0  0
 18 38  1  0  0  0  0
 19 39  1  0  0  0  0
 19 40  1  0  0  0  0
 19 41  1  0  0  0  0
M  END
