 xtb: 6.7.1 (edcfbbe)
          04092505203D

 41 40  0     0  0            999 V2000
    4.6895    0.1369   -1.8722 C   0  0  0  0  0  0  0  0  0  0  0  0
    4.4726    1.0512   -0.6840 C   0  0  0  0  0  0  0  0  0  0  0  0
    3.5735    0.4852    0.2868 O   0  0  0  0  0  0  0  0  0  0  0  0
    2.0268    0.2622   -0.0013 P   0  0  0  0  0  0  0  0  0  0  0  0
    1.1475    1.7025   -0.9903 S   0  0  0  0  0  0  0  0  0  0  0  0
    1.4190    0.0891    1.4427 O   0  0  0  0  0  0  0  0  0  0  0  0
    1.8205   -0.9254    2.3970 C   0  0  0  0  0  0  0  0  0  0  0  0
    2.9286   -0.4215    3.2976 C   0  0  0  0  0  0  0  0  0  0  0  0
    1.9617   -1.6672   -0.8925 S   0  0  0  0  0  0  0  0  0  0  0  0
    0.2071   -1.6860   -1.3151 C   0  0  0  0  0  0  0  0  0  0  0  0
   -0.8744   -1.8393    0.1491 S   0  0  0  0  0  0  0  0  0  0  0  0
   -2.0168   -0.0782   -0.0061 P   0  0  0  0  0  0  0  0  0  0  0  0
   -2.2500    0.6403   -1.8192 S   0  0  0  0  0  0  0  0  0  0  0  0
   -1.3585    0.8662    1.0771 O   0  0  0  0  0  0  0  0  0  0  0  0
   -1.5806    2.2894    1.0952 C   0  0  0  0  0  0  0  0  0  0  0  0
   -3.0200    2.6292    1.4141 C   0  0  0  0  0  0  0  0  0  0  0  0
   -3.3462   -0.5067    0.7567 O   0  0  0  0  0  0  0  0  0  0  0  0
   -4.3172   -1.3973    0.1724 C   0  0  0  0  0  0  0  0  0  0  0  0
   -5.4341   -0.6178   -0.4945 C   0  0  0  0  0  0  0  0  0  0  0  0
    4.9649   -0.8601   -1.5378 H   0  0  0  0  0  0  0  0  0  0  0  0
    3.7783    0.0700   -2.4644 H   0  0  0  0  0  0  0  0  0  0  0  0
    5.4818    0.5416   -2.4937 H   0  0  0  0  0  0  0  0  0  0  0  0
    4.0672    2.0148   -1.0078 H   0  0  0  0  0  0  0  0  0  0  0  0
    5.3948    1.2069   -0.1224 H   0  0  0  0  0  0  0  0  0  0  0  0
    0.9077   -1.1344    2.9590 H   0  0  0  0  0  0  0  0  0  0  0  0
    2.1291   -1.8224    1.8523 H   0  0  0  0  0  0  0  0  0  0  0  0
    3.8280   -0.2296    2.7190 H   0  0  0  0  0  0  0  0  0  0  0  0
    2.6227    0.4989    3.7875 H   0  0  0  0  0  0  0  0  0  0  0  0
    3.1398   -1.1751    4.0499 H   0  0  0  0  0  0  0  0  0  0  0  0
    0.0558   -2.5645   -1.9368 H   0  0  0  0  0  0  0  0  0  0  0  0
   -0.0612   -0.7717   -1.8527 H   0  0  0  0  0  0  0  0  0  0  0  0
   -0.8913    2.6481    1.8612 H   0  0  0  0  0  0  0  0  0  0  0  0
   -1.2856    2.6993    0.1231 H   0  0  0  0  0  0  0  0  0  0  0  0
   -3.3224    2.1481    2.3406 H   0  0  0  0  0  0  0  0  0  0  0  0
   -3.1217    3.7056    1.5102 H   0  0  0  0  0  0  0  0  0  0  0  0
   -3.6655    2.2821    0.6079 H   0  0  0  0  0  0  0  0  0  0  0  0
   -3.8184   -2.0566   -0.5439 H   0  0  0  0  0  0  0  0  0  0  0  0
   -4.6892   -1.9873    1.0120 H   0  0  0  0  0  0  0  0  0  0  0  0
   -5.9018    0.0525    0.2212 H   0  0  0  0  0  0  0  0  0  0  0  0
   -5.0405   -0.0315   -1.3221 H   0  0  0  0  0  0  0  0  0  0  0  0
   -6.1763   -1.3119   -0.8752 H   0  0  0  0  0  0  0  0  0  0  0  0
  1  2  1  0  0  0  0
  2  3  1  0  0  0  0
  3  4  2  0  0  0  0
  4  5  2  0  0  0  0
  4  6  2  0  0  0  0
  6  7  1  0  0  0  0
  7  8  1  0  0  0  0
  4  9  1  0  0  0  0
  9 10  1  0  0  0  0
 10 11  1  0  0  0  0
 11 12  1  0  0  0  0
 12 13  2  0  0  0  0
 12 14  2  0  0  0  0
 14 15  1  0  0  0  0
 15 16  1  0  0  0  0
 12 17  2  0  0  0  0
 17 18  1  0  0  0  0
 18 19  1  0  0  0  0
  1 20  1  0  0  0  0
  1 21  1  0  0  0  0
  1 22  1  0  0  0  0
  2 23  1  0  0  0  0
  2 24  1  0  0  0  0
  7 25  1  0  0  0  0
  7 26  1  0  0  0  0
  8 27  1  0  0  0  0
  8 28  1  0  0  0  0
  8 29  1  0  0  0  0
 10 30  1  0  0  0  0
 10 31  1  0  0  0  0
 15 32  1  0  0  0  0
 15 33  1  0  0  0  0
 16 34  1  0  0  0  0
 16 35  1  0  0  0  0
 16 36  1  0  0  0  0
 18 37  1  0  0  0  0
 18 38  1  0  0  0  0
 19 39  1  0  0  0  0
 19 40  1  0  0  0  0
 19 41  1  0  0  0  0
M  END
