 xtb: 6.7.1 (edcfbbe)
          04092505203D

 41 40  0     0  0            999 V2000
    2.2165    1.3630   -2.9825 C   0  0  0  0  0  0  0  0  0  0  0  0
    2.5145    0.4537   -1.8107 C   0  0  0  0  0  0  0  0  0  0  0  0
    1.7765    0.9646   -0.6691 O   0  0  0  0  0  0  0  0  0  0  0  0
    1.8057    0.2939    0.7528 P   0  0  0  0  0  0  0  0  0  0  0  0
    1.1014    1.4269    2.1782 S   0  0  0  0  0  0  0  0  0  0  0  0
    3.3582   -0.0364    0.8956 O   0  0  0  0  0  0  0  0  0  0  0  0
    3.8890   -0.5926    2.1157 C   0  0  0  0  0  0  0  0  0  0  0  0
    5.3999   -0.5022    2.0500 C   0  0  0  0  0  0  0  0  0  0  0  0
    0.9815   -1.6761    0.6464 S   0  0  0  0  0  0  0  0  0  0  0  0
   -0.4932   -1.4678    1.6789 C   0  0  0  0  0  0  0  0  0  0  0  0
   -2.0701   -1.5545    0.7813 S   0  0  0  0  0  0  0  0  0  0  0  0
   -1.6738   -0.1897   -0.8122 P   0  0  0  0  0  0  0  0  0  0  0  0
   -0.6644   -0.9218   -2.3228 S   0  0  0  0  0  0  0  0  0  0  0  0
   -1.0156    1.0963   -0.1772 O   0  0  0  0  0  0  0  0  0  0  0  0
   -1.7539    2.2297    0.3536 C   0  0  0  0  0  0  0  0  0  0  0  0
   -2.5275    1.8897    1.6089 C   0  0  0  0  0  0  0  0  0  0  0  0
   -3.1259    0.3085   -1.2081 O   0  0  0  0  0  0  0  0  0  0  0  0
   -4.0302   -0.5471   -1.9380 C   0  0  0  0  0  0  0  0  0  0  0  0
   -5.1347    0.3204   -2.5054 C   0  0  0  0  0  0  0  0  0  0  0  0
    2.7926    1.0335   -3.8408 H   0  0  0  0  0  0  0  0  0  0  0  0
    1.1580    1.3152   -3.2256 H   0  0  0  0  0  0  0  0  0  0  0  0
    2.4788    2.3881   -2.7371 H   0  0  0  0  0  0  0  0  0  0  0  0
    3.5755    0.4519   -1.5564 H   0  0  0  0  0  0  0  0  0  0  0  0
    2.1804   -0.5686   -2.0087 H   0  0  0  0  0  0  0  0  0  0  0  0
    3.4886   -0.0215    2.9599 H   0  0  0  0  0  0  0  0  0  0  0  0
    3.5525   -1.6303    2.1929 H   0  0  0  0  0  0  0  0  0  0  0  0
    5.8193   -0.9174    2.9603 H   0  0  0  0  0  0  0  0  0  0  0  0
    5.7694   -1.0617    1.1953 H   0  0  0  0  0  0  0  0  0  0  0  0
    5.7078    0.5352    1.9532 H   0  0  0  0  0  0  0  0  0  0  0  0
   -0.4122   -0.5085    2.1982 H   0  0  0  0  0  0  0  0  0  0  0  0
   -0.5205   -2.2944    2.3847 H   0  0  0  0  0  0  0  0  0  0  0  0
   -0.9686    2.9596    0.5570 H   0  0  0  0  0  0  0  0  0  0  0  0
   -2.4149    2.5955   -0.4327 H   0  0  0  0  0  0  0  0  0  0  0  0
   -3.0448    2.7816    1.9483 H   0  0  0  0  0  0  0  0  0  0  0  0
   -3.2582    1.1093    1.4088 H   0  0  0  0  0  0  0  0  0  0  0  0
   -1.8500    1.5603    2.3932 H   0  0  0  0  0  0  0  0  0  0  0  0
   -3.4680   -1.0540   -2.7293 H   0  0  0  0  0  0  0  0  0  0  0  0
   -4.4224   -1.2948   -1.2436 H   0  0  0  0  0  0  0  0  0  0  0  0
   -5.8344   -0.3076   -3.0469 H   0  0  0  0  0  0  0  0  0  0  0  0
   -5.6573    0.8316   -1.7022 H   0  0  0  0  0  0  0  0  0  0  0  0
   -4.7185    1.0597   -3.1841 H   0  0  0  0  0  0  0  0  0  0  0  0
  1  2  1  0  0  0  0
  2  3  1  0  0  0  0
  3  4  2  0  0  0  0
  4  5  2  0  0  0  0
  4  6  2  0  0  0  0
  6  7  1  0  0  0  0
  7  8  1  0  0  0  0
  4  9  1  0  0  0  0
  9 10  1  0  0  0  0
 10 11  1  0  0  0  0
 11 12  1  0  0  0  0
 12 13  2  0  0  0  0
 12 14  2  0  0  0  0
 14 15  1  0  0  0  0
 15 16  1  0  0  0  0
 12 17  2  0  0  0  0
 17 18  1  0  0  0  0
 18 19  1  0  0  0  0
  1 20  1  0  0  0  0
  1 21  1  0  0  0  0
  1 22  1  0  0  0  0
  2 23  1  0  0  0  0
  2 24  1  0  0  0  0
  7 25  1  0  0  0  0
  7 26  1  0  0  0  0
  8 27  1  0  0  0  0
  8 28  1  0  0  0  0
  8 29  1  0  0  0  0
 10 30  1  0  0  0  0
 10 31  1  0  0  0  0
 15 32  1  0  0  0  0
 15 33  1  0  0  0  0
 16 34  1  0  0  0  0
 16 35  1  0  0  0  0
 16 36  1  0  0  0  0
 18 37  1  0  0  0  0
 18 38  1  0  0  0  0
 19 39  1  0  0  0  0
 19 40  1  0  0  0  0
 19 41  1  0  0  0  0
M  END
