 xtb: 6.7.1 (edcfbbe)
          04092505213D

 41 40  0     0  0            999 V2000
    3.2506   -1.2500   -2.3809 C   0  0  0  0  0  0  0  0  0  0  0  0
    1.8624   -0.6551   -2.2874 C   0  0  0  0  0  0  0  0  0  0  0  0
    1.3664   -0.6705   -0.9364 O   0  0  0  0  0  0  0  0  0  0  0  0
    2.0008    0.2327    0.2023 P   0  0  0  0  0  0  0  0  0  0  0  0
    2.8406    1.9227   -0.3132 S   0  0  0  0  0  0  0  0  0  0  0  0
    2.9926   -0.8262    0.8715 O   0  0  0  0  0  0  0  0  0  0  0  0
    4.0521   -0.4307    1.7563 C   0  0  0  0  0  0  0  0  0  0  0  0
    3.5260    0.0616    3.0899 C   0  0  0  0  0  0  0  0  0  0  0  0
    0.3779    0.3404    1.5472 S   0  0  0  0  0  0  0  0  0  0  0  0
   -0.2198   -1.3657    1.4599 C   0  0  0  0  0  0  0  0  0  0  0  0
   -1.2003   -1.7656   -0.0333 S   0  0  0  0  0  0  0  0  0  0  0  0
   -1.9613    0.1151   -0.5989 P   0  0  0  0  0  0  0  0  0  0  0  0
   -0.8737    1.5206   -1.4314 S   0  0  0  0  0  0  0  0  0  0  0  0
   -2.7380    0.5297    0.7336 O   0  0  0  0  0  0  0  0  0  0  0  0
   -2.8006    1.8582    1.2915 C   0  0  0  0  0  0  0  0  0  0  0  0
   -2.6718    1.7598    2.7981 C   0  0  0  0  0  0  0  0  0  0  0  0
   -3.0790   -0.2948   -1.6446 O   0  0  0  0  0  0  0  0  0  0  0  0
   -4.1592   -1.2187   -1.3514 C   0  0  0  0  0  0  0  0  0  0  0  0
   -3.9212   -2.5475   -2.0401 C   0  0  0  0  0  0  0  0  0  0  0  0
    3.5472   -1.3035   -3.4235 H   0  0  0  0  0  0  0  0  0  0  0  0
    3.9575   -0.6191   -1.8431 H   0  0  0  0  0  0  0  0  0  0  0  0
    3.2609   -2.2463   -1.9467 H   0  0  0  0  0  0  0  0  0  0  0  0
    1.1259   -1.2413   -2.8404 H   0  0  0  0  0  0  0  0  0  0  0  0
    1.8482    0.3791   -2.6481 H   0  0  0  0  0  0  0  0  0  0  0  0
    4.6544   -1.3335    1.8665 H   0  0  0  0  0  0  0  0  0  0  0  0
    4.6374    0.3526    1.2640 H   0  0  0  0  0  0  0  0  0  0  0  0
    2.9517    0.9765    2.9455 H   0  0  0  0  0  0  0  0  0  0  0  0
    2.8859   -0.6872    3.5489 H   0  0  0  0  0  0  0  0  0  0  0  0
    4.3625    0.2727    3.7482 H   0  0  0  0  0  0  0  0  0  0  0  0
   -0.8543   -1.5031    2.3325 H   0  0  0  0  0  0  0  0  0  0  0  0
    0.6240   -2.0526    1.4671 H   0  0  0  0  0  0  0  0  0  0  0  0
   -1.9992    2.4642    0.8554 H   0  0  0  0  0  0  0  0  0  0  0  0
   -3.7645    2.2820    1.0001 H   0  0  0  0  0  0  0  0  0  0  0  0
   -1.6910    1.3753    3.0667 H   0  0  0  0  0  0  0  0  0  0  0  0
   -2.7953    2.7491    3.2260 H   0  0  0  0  0  0  0  0  0  0  0  0
   -3.4378    1.0985    3.1921 H   0  0  0  0  0  0  0  0  0  0  0  0
   -4.2436   -1.3375   -0.2691 H   0  0  0  0  0  0  0  0  0  0  0  0
   -5.0533   -0.7278   -1.7397 H   0  0  0  0  0  0  0  0  0  0  0  0
   -3.0306   -3.0286   -1.6418 H   0  0  0  0  0  0  0  0  0  0  0  0
   -4.7792   -3.1909   -1.8738 H   0  0  0  0  0  0  0  0  0  0  0  0
   -3.7891   -2.3930   -3.1074 H   0  0  0  0  0  0  0  0  0  0  0  0
  1  2  1  0  0  0  0
  2  3  1  0  0  0  0
  3  4  2  0  0  0  0
  4  5  2  0  0  0  0
  4  6  2  0  0  0  0
  6  7  1  0  0  0  0
  7  8  1  0  0  0  0
  4  9  1  0  0  0  0
  9 10  1  0  0  0  0
 10 11  1  0  0  0  0
 11 12  1  0  0  0  0
 12 13  2  0  0  0  0
 12 14  2  0  0  0  0
 14 15  1  0  0  0  0
 15 16  1  0  0  0  0
 12 17  2  0  0  0  0
 17 18  1  0  0  0  0
 18 19  1  0  0  0  0
  1 20  1  0  0  0  0
  1 21  1  0  0  0  0
  1 22  1  0  0  0  0
  2 23  1  0  0  0  0
  2 24  1  0  0  0  0
  7 25  1  0  0  0  0
  7 26  1  0  0  0  0
  8 27  1  0  0  0  0
  8 28  1  0  0  0  0
  8 29  1  0  0  0  0
 10 30  1  0  0  0  0
 10 31  1  0  0  0  0
 15 32  1  0  0  0  0
 15 33  1  0  0  0  0
 16 34  1  0  0  0  0
 16 35  1  0  0  0  0
 16 36  1  0  0  0  0
 18 37  1  0  0  0  0
 18 38  1  0  0  0  0
 19 39  1  0  0  0  0
 19 40  1  0  0  0  0
 19 41  1  0  0  0  0
M  END
