 xtb: 6.7.1 (edcfbbe)
          04092505213D

 41 40  0     0  0            999 V2000
    4.5412   -1.5011   -0.9592 C   0  0  0  0  0  0  0  0  0  0  0  0
    4.6715   -0.1347   -0.3180 C   0  0  0  0  0  0  0  0  0  0  0  0
    3.5623    0.1623    0.5450 O   0  0  0  0  0  0  0  0  0  0  0  0
    2.0875    0.4005   -0.0089 P   0  0  0  0  0  0  0  0  0  0  0  0
    2.0619    1.3383   -1.7376 S   0  0  0  0  0  0  0  0  0  0  0  0
    1.4080    1.0314    1.2733 O   0  0  0  0  0  0  0  0  0  0  0  0
    1.9017    2.1973    1.9687 C   0  0  0  0  0  0  0  0  0  0  0  0
    1.6817    3.4676    1.1723 C   0  0  0  0  0  0  0  0  0  0  0  0
    1.1446   -1.4949    0.0500 S   0  0  0  0  0  0  0  0  0  0  0  0
    0.3579   -1.5223   -1.5960 C   0  0  0  0  0  0  0  0  0  0  0  0
   -1.3894   -2.0013   -1.5366 S   0  0  0  0  0  0  0  0  0  0  0  0
   -2.1475   -0.4627   -0.3025 P   0  0  0  0  0  0  0  0  0  0  0  0
   -1.3361    1.3231   -0.3980 S   0  0  0  0  0  0  0  0  0  0  0  0
   -2.2386   -1.0822    1.1606 O   0  0  0  0  0  0  0  0  0  0  0  0
   -1.3804   -0.7801    2.2727 C   0  0  0  0  0  0  0  0  0  0  0  0
   -2.2334   -0.6420    3.5187 C   0  0  0  0  0  0  0  0  0  0  0  0
   -3.6380   -0.5871   -0.8139 O   0  0  0  0  0  0  0  0  0  0  0  0
   -4.6032    0.4739   -0.6610 C   0  0  0  0  0  0  0  0  0  0  0  0
   -4.9240    0.7504    0.7931 C   0  0  0  0  0  0  0  0  0  0  0  0
    4.3639   -2.2596   -0.2011 H   0  0  0  0  0  0  0  0  0  0  0  0
    3.7075   -1.5002   -1.6605 H   0  0  0  0  0  0  0  0  0  0  0  0
    5.4534   -1.7339   -1.4988 H   0  0  0  0  0  0  0  0  0  0  0  0
    4.7310    0.6442   -1.0850 H   0  0  0  0  0  0  0  0  0  0  0  0
    5.5392   -0.0781    0.3405 H   0  0  0  0  0  0  0  0  0  0  0  0
    1.3211    2.2047    2.8929 H   0  0  0  0  0  0  0  0  0  0  0  0
    2.9599    2.0472    2.1946 H   0  0  0  0  0  0  0  0  0  0  0  0
    0.6406    3.5358    0.8626 H   0  0  0  0  0  0  0  0  0  0  0  0
    1.9344    4.3278    1.7838 H   0  0  0  0  0  0  0  0  0  0  0  0
    2.3032    3.4704    0.2785 H   0  0  0  0  0  0  0  0  0  0  0  0
    0.8431   -2.2816   -2.2043 H   0  0  0  0  0  0  0  0  0  0  0  0
    0.4668   -0.5302   -2.0447 H   0  0  0  0  0  0  0  0  0  0  0  0
   -0.6681   -1.6038    2.3695 H   0  0  0  0  0  0  0  0  0  0  0  0
   -0.8311    0.1430    2.0578 H   0  0  0  0  0  0  0  0  0  0  0  0
   -1.5849   -0.4991    4.3768 H   0  0  0  0  0  0  0  0  0  0  0  0
   -2.9030    0.2093    3.4305 H   0  0  0  0  0  0  0  0  0  0  0  0
   -2.8240   -1.5423    3.6605 H   0  0  0  0  0  0  0  0  0  0  0  0
   -4.2080    1.3721   -1.1462 H   0  0  0  0  0  0  0  0  0  0  0  0
   -5.4745    0.1103   -1.2075 H   0  0  0  0  0  0  0  0  0  0  0  0
   -4.0466    1.1647    1.2886 H   0  0  0  0  0  0  0  0  0  0  0  0
   -5.7350    1.4696    0.8525 H   0  0  0  0  0  0  0  0  0  0  0  0
   -5.2149   -0.1690    1.2945 H   0  0  0  0  0  0  0  0  0  0  0  0
  1  2  1  0  0  0  0
  2  3  1  0  0  0  0
  3  4  2  0  0  0  0
  4  5  2  0  0  0  0
  4  6  2  0  0  0  0
  6  7  1  0  0  0  0
  7  8  1  0  0  0  0
  4  9  1  0  0  0  0
  9 10  1  0  0  0  0
 10 11  1  0  0  0  0
 11 12  1  0  0  0  0
 12 13  2  0  0  0  0
 12 14  2  0  0  0  0
 14 15  1  0  0  0  0
 15 16  1  0  0  0  0
 12 17  2  0  0  0  0
 17 18  1  0  0  0  0
 18 19  1  0  0  0  0
  1 20  1  0  0  0  0
  1 21  1  0  0  0  0
  1 22  1  0  0  0  0
  2 23  1  0  0  0  0
  2 24  1  0  0  0  0
  7 25  1  0  0  0  0
  7 26  1  0  0  0  0
  8 27  1  0  0  0  0
  8 28  1  0  0  0  0
  8 29  1  0  0  0  0
 10 30  1  0  0  0  0
 10 31  1  0  0  0  0
 15 32  1  0  0  0  0
 15 33  1  0  0  0  0
 16 34  1  0  0  0  0
 16 35  1  0  0  0  0
 16 36  1  0  0  0  0
 18 37  1  0  0  0  0
 18 38  1  0  0  0  0
 19 39  1  0  0  0  0
 19 40  1  0  0  0  0
 19 41  1  0  0  0  0
M  END
