 xtb: 6.7.1 (edcfbbe)
          04092505203D

 41 40  0     0  0            999 V2000
    3.8579   -1.5120   -2.5377 C   0  0  0  0  0  0  0  0  0  0  0  0
    4.1364   -1.7900   -1.0746 C   0  0  0  0  0  0  0  0  0  0  0  0
    2.9399   -1.7516   -0.2772 O   0  0  0  0  0  0  0  0  0  0  0  0
    2.1381   -0.4076   -0.0023 P   0  0  0  0  0  0  0  0  0  0  0  0
    3.2475    1.1835    0.3035 S   0  0  0  0  0  0  0  0  0  0  0  0
    1.1947   -0.8555    1.1890 O   0  0  0  0  0  0  0  0  0  0  0  0
    1.4987   -0.5663    2.5659 C   0  0  0  0  0  0  0  0  0  0  0  0
    2.6577   -1.4021    3.0673 C   0  0  0  0  0  0  0  0  0  0  0  0
    0.7292   -0.3179   -1.5719 S   0  0  0  0  0  0  0  0  0  0  0  0
    0.2543    1.4150   -1.3404 C   0  0  0  0  0  0  0  0  0  0  0  0
   -0.4572    1.7531    0.2954 S   0  0  0  0  0  0  0  0  0  0  0  0
   -2.1717    0.5353    0.1095 P   0  0  0  0  0  0  0  0  0  0  0  0
   -2.9477    0.3752   -1.6862 S   0  0  0  0  0  0  0  0  0  0  0  0
   -3.1318    1.1268    1.2332 O   0  0  0  0  0  0  0  0  0  0  0  0
   -3.8315    2.3782    1.0699 C   0  0  0  0  0  0  0  0  0  0  0  0
   -5.2406    2.1454    0.5601 C   0  0  0  0  0  0  0  0  0  0  0  0
   -1.7206   -0.8052    0.8133 O   0  0  0  0  0  0  0  0  0  0  0  0
   -2.3231   -2.0900    0.5307 C   0  0  0  0  0  0  0  0  0  0  0  0
   -1.4314   -2.9077   -0.3822 C   0  0  0  0  0  0  0  0  0  0  0  0
    3.0730   -2.1685   -2.9048 H   0  0  0  0  0  0  0  0  0  0  0  0
    3.5381   -0.4788   -2.6671 H   0  0  0  0  0  0  0  0  0  0  0  0
    4.7637   -1.6744   -3.1129 H   0  0  0  0  0  0  0  0  0  0  0  0
    4.8428   -1.0568   -0.6722 H   0  0  0  0  0  0  0  0  0  0  0  0
    4.5200   -2.7996   -0.9218 H   0  0  0  0  0  0  0  0  0  0  0  0
    1.7215    0.5024    2.6560 H   0  0  0  0  0  0  0  0  0  0  0  0
    0.5703   -0.7922    3.0929 H   0  0  0  0  0  0  0  0  0  0  0  0
    2.8024   -1.2192    4.1274 H   0  0  0  0  0  0  0  0  0  0  0  0
    2.4593   -2.4580    2.9037 H   0  0  0  0  0  0  0  0  0  0  0  0
    3.5666   -1.1275    2.5329 H   0  0  0  0  0  0  0  0  0  0  0  0
   -0.4806    1.6374   -2.1134 H   0  0  0  0  0  0  0  0  0  0  0  0
    1.1321    2.0544   -1.4262 H   0  0  0  0  0  0  0  0  0  0  0  0
   -3.8365    2.8230    2.0667 H   0  0  0  0  0  0  0  0  0  0  0  0
   -3.2678    3.0212    0.3879 H   0  0  0  0  0  0  0  0  0  0  0  0
   -5.2138    1.7016   -0.4326 H   0  0  0  0  0  0  0  0  0  0  0  0
   -5.7734    1.4762    1.2298 H   0  0  0  0  0  0  0  0  0  0  0  0
   -5.7632    3.0951    0.5093 H   0  0  0  0  0  0  0  0  0  0  0  0
   -2.4370   -2.5620    1.5078 H   0  0  0  0  0  0  0  0  0  0  0  0
   -3.3066   -1.9354    0.0782 H   0  0  0  0  0  0  0  0  0  0  0  0
   -0.4235   -2.9528    0.0237 H   0  0  0  0  0  0  0  0  0  0  0  0
   -1.8327   -3.9124   -0.4675 H   0  0  0  0  0  0  0  0  0  0  0  0
   -1.3875   -2.4554   -1.3710 H   0  0  0  0  0  0  0  0  0  0  0  0
  1  2  1  0  0  0  0
  2  3  1  0  0  0  0
  3  4  2  0  0  0  0
  4  5  2  0  0  0  0
  4  6  2  0  0  0  0
  6  7  1  0  0  0  0
  7  8  1  0  0  0  0
  4  9  1  0  0  0  0
  9 10  1  0  0  0  0
 10 11  1  0  0  0  0
 11 12  1  0  0  0  0
 12 13  2  0  0  0  0
 12 14  2  0  0  0  0
 14 15  1  0  0  0  0
 15 16  1  0  0  0  0
 12 17  2  0  0  0  0
 17 18  1  0  0  0  0
 18 19  1  0  0  0  0
  1 20  1  0  0  0  0
  1 21  1  0  0  0  0
  1 22  1  0  0  0  0
  2 23  1  0  0  0  0
  2 24  1  0  0  0  0
  7 25  1  0  0  0  0
  7 26  1  0  0  0  0
  8 27  1  0  0  0  0
  8 28  1  0  0  0  0
  8 29  1  0  0  0  0
 10 30  1  0  0  0  0
 10 31  1  0  0  0  0
 15 32  1  0  0  0  0
 15 33  1  0  0  0  0
 16 34  1  0  0  0  0
 16 35  1  0  0  0  0
 16 36  1  0  0  0  0
 18 37  1  0  0  0  0
 18 38  1  0  0  0  0
 19 39  1  0  0  0  0
 19 40  1  0  0  0  0
 19 41  1  0  0  0  0
M  END
