 xtb: 6.7.1 (edcfbbe)
          04032520323D

 10  9  0     0  0            999 V2000
   -1.2684    0.7010   -0.0025 C   0  0  0  0  0  0  0  0  0  0  0  0
    0.0040   -0.0992   -0.0011 C   0  0  0  0  0  0  0  0  0  0  0  0
   -0.0000   -1.3164    0.0002 O   0  0  0  0  0  0  0  0  0  0  0  0
    1.2705    0.7023    0.0027 C   0  0  0  0  0  0  0  0  0  0  0  0
   -1.8322    0.4647    0.8979 H   0  0  0  0  0  0  0  0  0  0  0  0
   -1.0747    1.7665   -0.0486 H   0  0  0  0  0  0  0  0  0  0  0  0
   -1.8804    0.3942   -0.8479 H   0  0  0  0  0  0  0  0  0  0  0  0
    1.2981    1.3281   -0.8862 H   0  0  0  0  0  0  0  0  0  0  0  0
    2.1382    0.0486    0.0210 H   0  0  0  0  0  0  0  0  0  0  0  0
    1.2789    1.3552    0.8721 H   0  0  0  0  0  0  0  0  0  0  0  0
  1  2  1  0  0  0  0
  2  3  2  0  0  0  0
  2  4  1  0  0  0  0
  1  5  1  0  0  0  0
  1  6  1  0  0  0  0
  1  7  1  0  0  0  0
  4  8  1  0  0  0  0
  4  9  1  0  0  0  0
  4 10  1  0  0  0  0
M  END
