 xtb: 6.7.1 (edcfbbe)
          04092505213D

 41 40  0     0  0            999 V2000
    4.5959   -1.4639   -0.9591 C   0  0  0  0  0  0  0  0  0  0  0  0
    4.6999   -0.0681   -0.3792 C   0  0  0  0  0  0  0  0  0  0  0  0
    3.6001    0.2361    0.4933 O   0  0  0  0  0  0  0  0  0  0  0  0
    2.1110    0.4250   -0.0420 P   0  0  0  0  0  0  0  0  0  0  0  0
    2.0368    1.3024   -1.8018 S   0  0  0  0  0  0  0  0  0  0  0  0
    1.4404    1.0824    1.2341 O   0  0  0  0  0  0  0  0  0  0  0  0
    1.9203    2.2724    1.8949 C   0  0  0  0  0  0  0  0  0  0  0  0
    1.7499    3.5098    1.0375 C   0  0  0  0  0  0  0  0  0  0  0  0
    1.2299   -1.4866    0.0875 S   0  0  0  0  0  0  0  0  0  0  0  0
    0.2164   -1.5049   -1.4341 C   0  0  0  0  0  0  0  0  0  0  0  0
   -1.4829   -2.0543   -1.1445 S   0  0  0  0  0  0  0  0  0  0  0  0
   -2.2901   -0.3546   -0.1815 P   0  0  0  0  0  0  0  0  0  0  0  0
   -1.2863    1.3211   -0.4208 S   0  0  0  0  0  0  0  0  0  0  0  0
   -2.5876   -0.7236    1.3393 O   0  0  0  0  0  0  0  0  0  0  0  0
   -1.6064   -0.6732    2.3894 C   0  0  0  0  0  0  0  0  0  0  0  0
   -1.1469   -2.0723    2.7501 C   0  0  0  0  0  0  0  0  0  0  0  0
   -3.7360   -0.4482   -0.8091 O   0  0  0  0  0  0  0  0  0  0  0  0
   -4.9365    0.0391   -0.1696 C   0  0  0  0  0  0  0  0  0  0  0  0
   -4.8893    1.5332    0.0745 C   0  0  0  0  0  0  0  0  0  0  0  0
    4.4505   -2.1932   -0.1663 H   0  0  0  0  0  0  0  0  0  0  0  0
    3.7520   -1.5154   -1.6459 H   0  0  0  0  0  0  0  0  0  0  0  0
    5.5057   -1.6956   -1.5032 H   0  0  0  0  0  0  0  0  0  0  0  0
    4.7226    0.6785   -1.1797 H   0  0  0  0  0  0  0  0  0  0  0  0
    5.5785    0.0404    0.2581 H   0  0  0  0  0  0  0  0  0  0  0  0
    1.3039    2.3270    2.7941 H   0  0  0  0  0  0  0  0  0  0  0  0
    2.9670    2.1195    2.1679 H   0  0  0  0  0  0  0  0  0  0  0  0
    2.4065    3.4656    0.1701 H   0  0  0  0  0  0  0  0  0  0  0  0
    0.7227    3.5769    0.6834 H   0  0  0  0  0  0  0  0  0  0  0  0
    1.9900    4.3929    1.6209 H   0  0  0  0  0  0  0  0  0  0  0  0
    0.6417   -2.2295   -2.1234 H   0  0  0  0  0  0  0  0  0  0  0  0
    0.2242   -0.4991   -1.8633 H   0  0  0  0  0  0  0  0  0  0  0  0
   -0.7689   -0.0423    2.0720 H   0  0  0  0  0  0  0  0  0  0  0  0
   -2.1149   -0.1964    3.2302 H   0  0  0  0  0  0  0  0  0  0  0  0
   -0.6396   -2.5389    1.9084 H   0  0  0  0  0  0  0  0  0  0  0  0
   -0.4572   -2.0148    3.5858 H   0  0  0  0  0  0  0  0  0  0  0  0
   -2.0022   -2.6817    3.0278 H   0  0  0  0  0  0  0  0  0  0  0  0
   -5.7241   -0.2270   -0.8764 H   0  0  0  0  0  0  0  0  0  0  0  0
   -5.0736   -0.5069    0.7659 H   0  0  0  0  0  0  0  0  0  0  0  0
   -4.0841    1.7731    0.7681 H   0  0  0  0  0  0  0  0  0  0  0  0
   -4.7067    2.0630   -0.8577 H   0  0  0  0  0  0  0  0  0  0  0  0
   -5.8336    1.8622    0.4968 H   0  0  0  0  0  0  0  0  0  0  0  0
  1  2  1  0  0  0  0
  2  3  1  0  0  0  0
  3  4  2  0  0  0  0
  4  5  2  0  0  0  0
  4  6  2  0  0  0  0
  6  7  1  0  0  0  0
  7  8  1  0  0  0  0
  4  9  1  0  0  0  0
  9 10  1  0  0  0  0
 10 11  1  0  0  0  0
 11 12  1  0  0  0  0
 12 13  2  0  0  0  0
 12 14  2  0  0  0  0
 14 15  1  0  0  0  0
 15 16  1  0  0  0  0
 12 17  2  0  0  0  0
 17 18  1  0  0  0  0
 18 19  1  0  0  0  0
  1 20  1  0  0  0  0
  1 21  1  0  0  0  0
  1 22  1  0  0  0  0
  2 23  1  0  0  0  0
  2 24  1  0  0  0  0
  7 25  1  0  0  0  0
  7 26  1  0  0  0  0
  8 27  1  0  0  0  0
  8 28  1  0  0  0  0
  8 29  1  0  0  0  0
 10 30  1  0  0  0  0
 10 31  1  0  0  0  0
 15 32  1  0  0  0  0
 15 33  1  0  0  0  0
 16 34  1  0  0  0  0
 16 35  1  0  0  0  0
 16 36  1  0  0  0  0
 18 37  1  0  0  0  0
 18 38  1  0  0  0  0
 19 39  1  0  0  0  0
 19 40  1  0  0  0  0
 19 41  1  0  0  0  0
M  END
