 xtb: 6.7.1 (edcfbbe)
          04092507313D

 38 37  0     0  0            999 V2000
    4.6645   -4.2903   -1.1708 C   0  0  0  0  0  0  0  0  0  0  0  0
    3.5873   -3.3896   -1.7419 C   0  0  0  0  0  0  0  0  0  0  0  0
    3.3172   -2.3523   -0.7779 O   0  0  0  0  0  0  0  0  0  0  0  0
    2.3150   -1.5336   -1.0194 C   0  0  0  0  0  0  0  0  0  0  0  0
    1.6042   -1.5944   -1.9982 O   0  0  0  0  0  0  0  0  0  0  0  0
    2.1752   -0.4972    0.0803 C   0  0  0  0  0  0  0  0  0  0  0  0
    0.8068    0.1615    0.0173 C   0  0  0  0  0  0  0  0  0  0  0  0
    0.5825    0.4338   -1.0227 H   0  0  0  0  0  0  0  0  0  0  0  0
    0.6773    1.4191    0.8545 C   0  0  0  0  0  0  0  0  0  0  0  0
   -0.2986    1.6395    1.5423 O   0  0  0  0  0  0  0  0  0  0  0  0
    1.7062    2.2117    0.7226 O   0  0  0  0  0  0  0  0  0  0  0  0
    1.6549    3.5084    1.3584 C   0  0  0  0  0  0  0  0  0  0  0  0
    0.9679    4.5151    0.4510 C   0  0  0  0  0  0  0  0  0  0  0  0
   -0.4957   -0.9979    0.5577 S   0  0  0  0  0  0  0  0  0  0  0  0
   -2.1693    0.2619    0.2012 P   0  0  0  0  0  0  0  0  0  0  0  0
   -1.9585    1.7287   -1.0768 S   0  0  0  0  0  0  0  0  0  0  0  0
   -3.2462   -0.8287   -0.2950 O   0  0  0  0  0  0  0  0  0  0  0  0
   -3.1188   -1.4664   -1.5670 C   0  0  0  0  0  0  0  0  0  0  0  0
   -2.8517    0.6787    1.5608 O   0  0  0  0  0  0  0  0  0  0  0  0
   -3.1159   -0.2643    2.6177 C   0  0  0  0  0  0  0  0  0  0  0  0
    5.5643   -3.7154   -0.9745 H   0  0  0  0  0  0  0  0  0  0  0  0
    4.3233   -4.7360   -0.2413 H   0  0  0  0  0  0  0  0  0  0  0  0
    4.8896   -5.0765   -1.8836 H   0  0  0  0  0  0  0  0  0  0  0  0
    2.6569   -3.9330   -1.9329 H   0  0  0  0  0  0  0  0  0  0  0  0
    3.9065   -2.9157   -2.6753 H   0  0  0  0  0  0  0  0  0  0  0  0
    2.9448    0.2637   -0.0688 H   0  0  0  0  0  0  0  0  0  0  0  0
    2.3430   -0.9798    1.0430 H   0  0  0  0  0  0  0  0  0  0  0  0
    1.1210    3.4108    2.3072 H   0  0  0  0  0  0  0  0  0  0  0  0
    2.6997    3.7677    1.5275 H   0  0  0  0  0  0  0  0  0  0  0  0
    0.9572    5.4870    0.9328 H   0  0  0  0  0  0  0  0  0  0  0  0
    1.4932    4.5882   -0.4971 H   0  0  0  0  0  0  0  0  0  0  0  0
   -0.0580    4.2064    0.2554 H   0  0  0  0  0  0  0  0  0  0  0  0
   -4.0300   -2.0439   -1.6985 H   0  0  0  0  0  0  0  0  0  0  0  0
   -2.2445   -2.1186   -1.5749 H   0  0  0  0  0  0  0  0  0  0  0  0
   -3.0238   -0.7164   -2.3541 H   0  0  0  0  0  0  0  0  0  0  0  0
   -2.1876   -0.7466    2.9238 H   0  0  0  0  0  0  0  0  0  0  0  0
   -3.8339   -1.0092    2.2790 H   0  0  0  0  0  0  0  0  0  0  0  0
   -3.5245    0.3319    3.4293 H   0  0  0  0  0  0  0  0  0  0  0  0
  1  2  1  0  0  0  0
  2  3  1  0  0  0  0
  3  4  1  0  0  0  0
  4  5  2  0  0  0  0
  4  6  1  0  0  0  0
  6  7  1  0  0  0  0
  7  8  1  0  0  0  0
  7  9  1  0  0  0  0
  9 10  2  0  0  0  0
  9 11  4  0  0  0  0
 11 12  1  0  0  0  0
 12 13  1  0  0  0  0
  7 14  1  0  0  0  0
 14 15  1  0  0  0  0
 15 16  2  0  0  0  0
 15 17  1  0  0  0  0
 17 18  1  0  0  0  0
 15 19  2  0  0  0  0
 19 20  1  0  0  0  0
  1 21  1  0  0  0  0
  1 22  1  0  0  0  0
  1 23  1  0  0  0  0
  2 24  1  0  0  0  0
  2 25  1  0  0  0  0
  6 26  1  0  0  0  0
  6 27  1  0  0  0  0
 12 28  1  0  0  0  0
 12 29  1  0  0  0  0
 13 30  1  0  0  0  0
 13 31  1  0  0  0  0
 13 32  1  0  0  0  0
 18 33  1  0  0  0  0
 18 34  1  0  0  0  0
 18 35  1  0  0  0  0
 20 36  1  0  0  0  0
 20 37  1  0  0  0  0
 20 38  1  0  0  0  0
M  END
