 xtb: 6.7.1 (edcfbbe)
          04092505213D

 41 40  0     0  0            999 V2000
    1.7292    2.3559   -2.4661 C   0  0  0  0  0  0  0  0  0  0  0  0
    2.2384    1.1843   -1.6551 C   0  0  0  0  0  0  0  0  0  0  0  0
    1.6123    1.2474   -0.3461 O   0  0  0  0  0  0  0  0  0  0  0  0
    1.8502    0.1578    0.7644 P   0  0  0  0  0  0  0  0  0  0  0  0
    1.1703    0.6874    2.5185 S   0  0  0  0  0  0  0  0  0  0  0  0
    3.4310   -0.0154    0.6487 O   0  0  0  0  0  0  0  0  0  0  0  0
    4.1922   -0.9711    1.4114 C   0  0  0  0  0  0  0  0  0  0  0  0
    4.6298   -0.3988    2.7457 C   0  0  0  0  0  0  0  0  0  0  0  0
    1.1911   -1.7474    0.0482 S   0  0  0  0  0  0  0  0  0  0  0  0
   -0.1807   -2.0746    1.1854 C   0  0  0  0  0  0  0  0  0  0  0  0
   -1.8117   -2.1068    0.3877 S   0  0  0  0  0  0  0  0  0  0  0  0
   -1.7334   -0.2493   -0.6590 P   0  0  0  0  0  0  0  0  0  0  0  0
   -0.9037   -0.2901   -2.4356 S   0  0  0  0  0  0  0  0  0  0  0  0
   -1.0827    0.7232    0.4055 O   0  0  0  0  0  0  0  0  0  0  0  0
   -1.6964    1.9458    0.8818 C   0  0  0  0  0  0  0  0  0  0  0  0
   -1.5665    3.0471   -0.1471 C   0  0  0  0  0  0  0  0  0  0  0  0
   -3.2530    0.1999   -0.6785 O   0  0  0  0  0  0  0  0  0  0  0  0
   -4.1872   -0.3634   -1.6227 C   0  0  0  0  0  0  0  0  0  0  0  0
   -5.3820    0.5643   -1.7058 C   0  0  0  0  0  0  0  0  0  0  0  0
    1.9258    3.2880   -1.9437 H   0  0  0  0  0  0  0  0  0  0  0  0
    2.2356    2.3646   -3.4257 H   0  0  0  0  0  0  0  0  0  0  0  0
    0.6601    2.2547   -2.6336 H   0  0  0  0  0  0  0  0  0  0  0  0
    3.3196    1.2283   -1.5155 H   0  0  0  0  0  0  0  0  0  0  0  0
    1.9668    0.2338   -2.1233 H   0  0  0  0  0  0  0  0  0  0  0  0
    3.5953   -1.8777    1.5460 H   0  0  0  0  0  0  0  0  0  0  0  0
    5.0519   -1.1948    0.7765 H   0  0  0  0  0  0  0  0  0  0  0  0
    3.7657   -0.1785    3.3682 H   0  0  0  0  0  0  0  0  0  0  0  0
    5.2581   -1.1231    3.2539 H   0  0  0  0  0  0  0  0  0  0  0  0
    5.1907    0.5191    2.5925 H   0  0  0  0  0  0  0  0  0  0  0  0
   -0.1656   -1.3142    1.9721 H   0  0  0  0  0  0  0  0  0  0  0  0
   -0.0426   -3.0714    1.5973 H   0  0  0  0  0  0  0  0  0  0  0  0
   -2.7399    1.7417    1.1237 H   0  0  0  0  0  0  0  0  0  0  0  0
   -1.1376    2.1729    1.7921 H   0  0  0  0  0  0  0  0  0  0  0  0
   -2.0772    2.7604   -1.0654 H   0  0  0  0  0  0  0  0  0  0  0  0
   -2.0097    3.9581    0.2423 H   0  0  0  0  0  0  0  0  0  0  0  0
   -0.5168    3.2216   -0.3707 H   0  0  0  0  0  0  0  0  0  0  0  0
   -3.6856   -0.4638   -2.5912 H   0  0  0  0  0  0  0  0  0  0  0  0
   -4.4731   -1.3554   -1.2637 H   0  0  0  0  0  0  0  0  0  0  0  0
   -6.1073    0.1445   -2.3949 H   0  0  0  0  0  0  0  0  0  0  0  0
   -5.8381    0.6724   -0.7261 H   0  0  0  0  0  0  0  0  0  0  0  0
   -5.0747    1.5431   -2.0632 H   0  0  0  0  0  0  0  0  0  0  0  0
  1  2  1  0  0  0  0
  2  3  1  0  0  0  0
  3  4  2  0  0  0  0
  4  5  2  0  0  0  0
  4  6  2  0  0  0  0
  6  7  1  0  0  0  0
  7  8  1  0  0  0  0
  4  9  1  0  0  0  0
  9 10  1  0  0  0  0
 10 11  1  0  0  0  0
 11 12  1  0  0  0  0
 12 13  2  0  0  0  0
 12 14  2  0  0  0  0
 14 15  1  0  0  0  0
 15 16  1  0  0  0  0
 12 17  2  0  0  0  0
 17 18  1  0  0  0  0
 18 19  1  0  0  0  0
  1 20  1  0  0  0  0
  1 21  1  0  0  0  0
  1 22  1  0  0  0  0
  2 23  1  0  0  0  0
  2 24  1  0  0  0  0
  7 25  1  0  0  0  0
  7 26  1  0  0  0  0
  8 27  1  0  0  0  0
  8 28  1  0  0  0  0
  8 29  1  0  0  0  0
 10 30  1  0  0  0  0
 10 31  1  0  0  0  0
 15 32  1  0  0  0  0
 15 33  1  0  0  0  0
 16 34  1  0  0  0  0
 16 35  1  0  0  0  0
 16 36  1  0  0  0  0
 18 37  1  0  0  0  0
 18 38  1  0  0  0  0
 19 39  1  0  0  0  0
 19 40  1  0  0  0  0
 19 41  1  0  0  0  0
M  END
