 xtb: 6.7.1 (edcfbbe)
          04032519403D

 15 15  0     0  0            999 V2000
   -0.7387   -1.1915   -0.2311 C   0  0  0  0  0  0  0  0  0  0  0  0
    0.7272   -1.1715    0.2203 C   0  0  0  0  0  0  0  0  0  0  0  0
    1.3862    0.0014   -0.2327 O   0  0  0  0  0  0  0  0  0  0  0  0
    0.7247    1.1729    0.2203 C   0  0  0  0  0  0  0  0  0  0  0  0
   -0.7412    1.1901   -0.2311 C   0  0  0  0  0  0  0  0  0  0  0  0
   -1.4568   -0.0015    0.2028 N   0  0  0  0  0  0  0  0  0  0  0  0
   -1.2401   -2.0748    0.1645 H   0  0  0  0  0  0  0  0  0  0  0  0
   -0.7764   -1.2174   -1.3236 H   0  0  0  0  0  0  0  0  0  0  0  0
    0.7816   -1.2160    1.3199 H   0  0  0  0  0  0  0  0  0  0  0  0
    1.2865   -2.0061   -0.2031 H   0  0  0  0  0  0  0  0  0  0  0  0
    0.7790    1.2175    1.3199 H   0  0  0  0  0  0  0  0  0  0  0  0
    1.2822    2.0086   -0.2030 H   0  0  0  0  0  0  0  0  0  0  0  0
   -1.2445    2.0724    0.1645 H   0  0  0  0  0  0  0  0  0  0  0  0
   -0.7790    1.2159   -1.3236 H   0  0  0  0  0  0  0  0  0  0  0  0
   -1.5163   -0.0015    1.2184 H   0  0  0  0  0  0  0  0  0  0  0  0
  1  2  1  0  0  0  0
  2  3  1  0  0  0  0
  3  4  1  0  0  0  0
  4  5  1  0  0  0  0
  1  6  1  0  0  0  0
  5  6  1  0  0  0  0
  1  7  1  0  0  0  0
  1  8  1  0  0  0  0
  2  9  1  0  0  0  0
  2 10  1  0  0  0  0
  4 11  1  0  0  0  0
  4 12  1  0  0  0  0
  5 13  1  0  0  0  0
  5 14  1  0  0  0  0
  6 15  1  0  0  0  0
M  END
