 xtb: 6.7.1 (edcfbbe)
          04092505213D

 41 40  0     0  0            999 V2000
    4.7232    1.2547   -1.4731 C   0  0  0  0  0  0  0  0  0  0  0  0
    4.8278    0.9622    0.0094 C   0  0  0  0  0  0  0  0  0  0  0  0
    3.8968   -0.0485    0.4371 O   0  0  0  0  0  0  0  0  0  0  0  0
    2.3201    0.1500    0.3881 P   0  0  0  0  0  0  0  0  0  0  0  0
    1.6518    1.9102    0.9172 S   0  0  0  0  0  0  0  0  0  0  0  0
    1.8210   -0.9902    1.3571 O   0  0  0  0  0  0  0  0  0  0  0  0
    2.2598   -2.3687    1.2357 C   0  0  0  0  0  0  0  0  0  0  0  0
    1.1521   -3.2634    1.7508 C   0  0  0  0  0  0  0  0  0  0  0  0
    1.7889   -0.4986   -1.5732 S   0  0  0  0  0  0  0  0  0  0  0  0
    0.0769    0.0474   -1.5212 C   0  0  0  0  0  0  0  0  0  0  0  0
   -0.9728   -1.1455   -0.6038 S   0  0  0  0  0  0  0  0  0  0  0  0
   -2.5188    0.2151   -0.1016 P   0  0  0  0  0  0  0  0  0  0  0  0
   -4.1457   -0.5348    0.6869 S   0  0  0  0  0  0  0  0  0  0  0  0
   -2.7177    1.0660   -1.4303 O   0  0  0  0  0  0  0  0  0  0  0  0
   -3.7557    0.7442   -2.3758 C   0  0  0  0  0  0  0  0  0  0  0  0
   -3.4654   -0.5366   -3.1334 C   0  0  0  0  0  0  0  0  0  0  0  0
   -1.7817    1.3470    0.7361 O   0  0  0  0  0  0  0  0  0  0  0  0
   -1.8264    1.3720    2.1729 C   0  0  0  0  0  0  0  0  0  0  0  0
   -1.1831    0.1501    2.7969 C   0  0  0  0  0  0  0  0  0  0  0  0
    3.7737    1.7407   -1.6920 H   0  0  0  0  0  0  0  0  0  0  0  0
    5.5315    1.9180   -1.7640 H   0  0  0  0  0  0  0  0  0  0  0  0
    4.7867    0.3336   -2.0469 H   0  0  0  0  0  0  0  0  0  0  0  0
    4.6449    1.8684    0.5948 H   0  0  0  0  0  0  0  0  0  0  0  0
    5.8004    0.5424    0.2699 H   0  0  0  0  0  0  0  0  0  0  0  0
    2.4839   -2.5755    0.1853 H   0  0  0  0  0  0  0  0  0  0  0  0
    3.1709   -2.4702    1.8276 H   0  0  0  0  0  0  0  0  0  0  0  0
    1.4819   -4.2962    1.7072 H   0  0  0  0  0  0  0  0  0  0  0  0
    0.9106   -3.0056    2.7780 H   0  0  0  0  0  0  0  0  0  0  0  0
    0.2596   -3.1466    1.1408 H   0  0  0  0  0  0  0  0  0  0  0  0
   -0.2656    0.1039   -2.5506 H   0  0  0  0  0  0  0  0  0  0  0  0
    0.0186    1.0184   -1.0248 H   0  0  0  0  0  0  0  0  0  0  0  0
   -4.7032    0.6593   -1.8344 H   0  0  0  0  0  0  0  0  0  0  0  0
   -3.7841    1.6103   -3.0384 H   0  0  0  0  0  0  0  0  0  0  0  0
   -3.4332   -1.3779   -2.4414 H   0  0  0  0  0  0  0  0  0  0  0  0
   -4.2563   -0.7084   -3.8566 H   0  0  0  0  0  0  0  0  0  0  0  0
   -2.5145   -0.4704   -3.6557 H   0  0  0  0  0  0  0  0  0  0  0  0
   -1.2861    2.2841    2.4324 H   0  0  0  0  0  0  0  0  0  0  0  0
   -2.8728    1.4526    2.4824 H   0  0  0  0  0  0  0  0  0  0  0  0
   -1.7254   -0.7483    2.5012 H   0  0  0  0  0  0  0  0  0  0  0  0
   -0.1469    0.0591    2.4779 H   0  0  0  0  0  0  0  0  0  0  0  0
   -1.2147    0.2430    3.8776 H   0  0  0  0  0  0  0  0  0  0  0  0
  1  2  1  0  0  0  0
  2  3  1  0  0  0  0
  3  4  2  0  0  0  0
  4  5  2  0  0  0  0
  4  6  2  0  0  0  0
  6  7  1  0  0  0  0
  7  8  1  0  0  0  0
  4  9  1  0  0  0  0
  9 10  1  0  0  0  0
 10 11  1  0  0  0  0
 11 12  1  0  0  0  0
 12 13  2  0  0  0  0
 12 14  2  0  0  0  0
 14 15  1  0  0  0  0
 15 16  1  0  0  0  0
 12 17  2  0  0  0  0
 17 18  1  0  0  0  0
 18 19  1  0  0  0  0
  1 20  1  0  0  0  0
  1 21  1  0  0  0  0
  1 22  1  0  0  0  0
  2 23  1  0  0  0  0
  2 24  1  0  0  0  0
  7 25  1  0  0  0  0
  7 26  1  0  0  0  0
  8 27  1  0  0  0  0
  8 28  1  0  0  0  0
  8 29  1  0  0  0  0
 10 30  1  0  0  0  0
 10 31  1  0  0  0  0
 15 32  1  0  0  0  0
 15 33  1  0  0  0  0
 16 34  1  0  0  0  0
 16 35  1  0  0  0  0
 16 36  1  0  0  0  0
 18 37  1  0  0  0  0
 18 38  1  0  0  0  0
 19 39  1  0  0  0  0
 19 40  1  0  0  0  0
 19 41  1  0  0  0  0
M  END
