 xtb: 6.7.1 (edcfbbe)
          04092507313D

 38 37  0     0  0            999 V2000
    5.4436   -1.5596   -2.0239 C   0  0  0  0  0  0  0  0  0  0  0  0
    4.7268   -2.5358   -1.1051 C   0  0  0  0  0  0  0  0  0  0  0  0
    3.3092   -2.5467   -1.3719 O   0  0  0  0  0  0  0  0  0  0  0  0
    2.5450   -1.6691   -0.7610 C   0  0  0  0  0  0  0  0  0  0  0  0
    2.9397   -0.8426    0.0366 O   0  0  0  0  0  0  0  0  0  0  0  0
    1.0899   -1.8330   -1.1418 C   0  0  0  0  0  0  0  0  0  0  0  0
    0.3047   -0.6075   -0.6963 C   0  0  0  0  0  0  0  0  0  0  0  0
    0.5196    0.2732   -1.3064 H   0  0  0  0  0  0  0  0  0  0  0  0
    0.5955   -0.2892    0.7606 C   0  0  0  0  0  0  0  0  0  0  0  0
    0.4738   -1.1024    1.6526 O   0  0  0  0  0  0  0  0  0  0  0  0
    0.9026    0.9765    0.9201 O   0  0  0  0  0  0  0  0  0  0  0  0
    1.2358    1.4467    2.2404 C   0  0  0  0  0  0  0  0  0  0  0  0
    0.7668    2.8818    2.3815 C   0  0  0  0  0  0  0  0  0  0  0  0
   -1.4818   -0.9696   -0.8079 S   0  0  0  0  0  0  0  0  0  0  0  0
   -2.1667    0.8791   -0.0126 P   0  0  0  0  0  0  0  0  0  0  0  0
   -1.4047    2.4984   -0.7919 S   0  0  0  0  0  0  0  0  0  0  0  0
   -3.7480    0.7282   -0.1697 O   0  0  0  0  0  0  0  0  0  0  0  0
   -4.3687    0.7954   -1.4609 C   0  0  0  0  0  0  0  0  0  0  0  0
   -2.0129    0.8187    1.5621 O   0  0  0  0  0  0  0  0  0  0  0  0
   -2.5692   -0.2379    2.3731 C   0  0  0  0  0  0  0  0  0  0  0  0
    5.2353   -1.8014   -3.0623 H   0  0  0  0  0  0  0  0  0  0  0  0
    5.1120   -0.5433   -1.8224 H   0  0  0  0  0  0  0  0  0  0  0  0
    6.5125   -1.6218   -1.8488 H   0  0  0  0  0  0  0  0  0  0  0  0
    4.8823   -2.2686   -0.0560 H   0  0  0  0  0  0  0  0  0  0  0  0
    5.0440   -3.5622   -1.2888 H   0  0  0  0  0  0  0  0  0  0  0  0
    0.7145   -2.7166   -0.6176 H   0  0  0  0  0  0  0  0  0  0  0  0
    0.9938   -2.0032   -2.2130 H   0  0  0  0  0  0  0  0  0  0  0  0
    0.7606    0.7861    2.9719 H   0  0  0  0  0  0  0  0  0  0  0  0
    2.3227    1.3655    2.3338 H   0  0  0  0  0  0  0  0  0  0  0  0
    1.0463    3.2559    3.3605 H   0  0  0  0  0  0  0  0  0  0  0  0
    1.2222    3.4981    1.6118 H   0  0  0  0  0  0  0  0  0  0  0  0
   -0.3136    2.9350    2.2687 H   0  0  0  0  0  0  0  0  0  0  0  0
   -3.9827    1.6510   -2.0168 H   0  0  0  0  0  0  0  0  0  0  0  0
   -5.4317    0.9144   -1.2674 H   0  0  0  0  0  0  0  0  0  0  0  0
   -4.1755   -0.1250   -2.0108 H   0  0  0  0  0  0  0  0  0  0  0  0
   -2.7501    0.2094    3.3472 H   0  0  0  0  0  0  0  0  0  0  0  0
   -1.8382   -1.0436    2.4528 H   0  0  0  0  0  0  0  0  0  0  0  0
   -3.4972   -0.6033    1.9398 H   0  0  0  0  0  0  0  0  0  0  0  0
  1  2  1  0  0  0  0
  2  3  1  0  0  0  0
  3  4  4  0  0  0  0
  4  5  2  0  0  0  0
  4  6  1  0  0  0  0
  6  7  1  0  0  0  0
  7  8  1  0  0  0  0
  7  9  1  0  0  0  0
  9 10  2  0  0  0  0
  9 11  1  0  0  0  0
 11 12  1  0  0  0  0
 12 13  1  0  0  0  0
  7 14  1  0  0  0  0
 14 15  1  0  0  0  0
 15 16  2  0  0  0  0
 15 17  2  0  0  0  0
 17 18  1  0  0  0  0
 15 19  2  0  0  0  0
 19 20  1  0  0  0  0
  1 21  1  0  0  0  0
  1 22  1  0  0  0  0
  1 23  1  0  0  0  0
  2 24  1  0  0  0  0
  2 25  1  0  0  0  0
  6 26  1  0  0  0  0
  6 27  1  0  0  0  0
 12 28  1  0  0  0  0
 12 29  1  0  0  0  0
 13 30  1  0  0  0  0
 13 31  1  0  0  0  0
 13 32  1  0  0  0  0
 18 33  1  0  0  0  0
 18 34  1  0  0  0  0
 18 35  1  0  0  0  0
 20 36  1  0  0  0  0
 20 37  1  0  0  0  0
 20 38  1  0  0  0  0
M  END
