 xtb: 6.7.1 (edcfbbe)
          04092505213D

 41 40  0     0  0            999 V2000
    4.6195    0.4748   -1.5068 C   0  0  0  0  0  0  0  0  0  0  0  0
    4.5549    0.1422   -0.0295 C   0  0  0  0  0  0  0  0  0  0  0  0
    3.3563   -0.5668    0.3077 O   0  0  0  0  0  0  0  0  0  0  0  0
    1.9160    0.1303    0.2554 P   0  0  0  0  0  0  0  0  0  0  0  0
    1.9676    1.9731    0.9278 S   0  0  0  0  0  0  0  0  0  0  0  0
    1.0609   -0.9279    1.0664 O   0  0  0  0  0  0  0  0  0  0  0  0
    0.8755   -0.7905    2.4889 C   0  0  0  0  0  0  0  0  0  0  0  0
    2.1670   -0.9826    3.2545 C   0  0  0  0  0  0  0  0  0  0  0  0
    1.2782   -0.2453   -1.7421 S   0  0  0  0  0  0  0  0  0  0  0  0
    0.0263   -1.5614   -1.6053 C   0  0  0  0  0  0  0  0  0  0  0  0
   -1.6615   -1.0280   -2.0320 S   0  0  0  0  0  0  0  0  0  0  0  0
   -2.1638    0.0002   -0.2465 P   0  0  0  0  0  0  0  0  0  0  0  0
   -3.9688    0.7517   -0.2182 S   0  0  0  0  0  0  0  0  0  0  0  0
   -0.9493    1.0176   -0.0454 O   0  0  0  0  0  0  0  0  0  0  0  0
   -0.9991    2.2695   -0.7655 C   0  0  0  0  0  0  0  0  0  0  0  0
   -1.4088    3.3929    0.1627 C   0  0  0  0  0  0  0  0  0  0  0  0
   -1.8028   -0.9762    0.9502 O   0  0  0  0  0  0  0  0  0  0  0  0
   -2.8111   -1.8383    1.5144 C   0  0  0  0  0  0  0  0  0  0  0  0
   -3.1056   -3.0250    0.6184 C   0  0  0  0  0  0  0  0  0  0  0  0
    4.5229   -0.4272   -2.1051 H   0  0  0  0  0  0  0  0  0  0  0  0
    3.8065    1.1538   -1.7675 H   0  0  0  0  0  0  0  0  0  0  0  0
    5.5661    0.9571   -1.7279 H   0  0  0  0  0  0  0  0  0  0  0  0
    4.5960    1.0580    0.5701 H   0  0  0  0  0  0  0  0  0  0  0  0
    5.3583   -0.5327    0.2684 H   0  0  0  0  0  0  0  0  0  0  0  0
    0.4436    0.1955    2.6866 H   0  0  0  0  0  0  0  0  0  0  0  0
    0.1452   -1.5637    2.7301 H   0  0  0  0  0  0  0  0  0  0  0  0
    1.9532   -0.9911    4.3188 H   0  0  0  0  0  0  0  0  0  0  0  0
    2.6365   -1.9208    2.9700 H   0  0  0  0  0  0  0  0  0  0  0  0
    2.8531   -0.1648    3.0391 H   0  0  0  0  0  0  0  0  0  0  0  0
    0.0420   -1.9659   -0.5984 H   0  0  0  0  0  0  0  0  0  0  0  0
    0.2836   -2.3112   -2.3485 H   0  0  0  0  0  0  0  0  0  0  0  0
    0.0091    2.4296   -1.1547 H   0  0  0  0  0  0  0  0  0  0  0  0
   -1.6990    2.1761   -1.6032 H   0  0  0  0  0  0  0  0  0  0  0  0
   -1.4155    4.3262   -0.3905 H   0  0  0  0  0  0  0  0  0  0  0  0
   -2.4029    3.2044    0.5626 H   0  0  0  0  0  0  0  0  0  0  0  0
   -0.7001    3.4671    0.9836 H   0  0  0  0  0  0  0  0  0  0  0  0
   -2.3933   -2.1489    2.4731 H   0  0  0  0  0  0  0  0  0  0  0  0
   -3.7180   -1.2485    1.6823 H   0  0  0  0  0  0  0  0  0  0  0  0
   -3.8118   -3.6807    1.1178 H   0  0  0  0  0  0  0  0  0  0  0  0
   -3.5437   -2.6842   -0.3189 H   0  0  0  0  0  0  0  0  0  0  0  0
   -2.1951   -3.5781    0.4025 H   0  0  0  0  0  0  0  0  0  0  0  0
  1  2  1  0  0  0  0
  2  3  1  0  0  0  0
  3  4  1  0  0  0  0
  4  5  2  0  0  0  0
  4  6  1  0  0  0  0
  6  7  1  0  0  0  0
  7  8  1  0  0  0  0
  4  9  1  0  0  0  0
  9 10  1  0  0  0  0
 10 11  1  0  0  0  0
 11 12  1  0  0  0  0
 12 13  2  0  0  0  0
 12 14  1  0  0  0  0
 14 15  1  0  0  0  0
 15 16  1  0  0  0  0
 12 17  2  0  0  0  0
 17 18  1  0  0  0  0
 18 19  1  0  0  0  0
  1 20  1  0  0  0  0
  1 21  1  0  0  0  0
  1 22  1  0  0  0  0
  2 23  1  0  0  0  0
  2 24  1  0  0  0  0
  7 25  1  0  0  0  0
  7 26  1  0  0  0  0
  8 27  1  0  0  0  0
  8 28  1  0  0  0  0
  8 29  1  0  0  0  0
 10 30  1  0  0  0  0
 10 31  1  0  0  0  0
 15 32  1  0  0  0  0
 15 33  1  0  0  0  0
 16 34  1  0  0  0  0
 16 35  1  0  0  0  0
 16 36  1  0  0  0  0
 18 37  1  0  0  0  0
 18 38  1  0  0  0  0
 19 39  1  0  0  0  0
 19 40  1  0  0  0  0
 19 41  1  0  0  0  0
M  END
