 xtb: 6.7.1 (edcfbbe)
          04092505213D

 41 40  0     0  0            999 V2000
    3.4478    2.1895   -1.3680 C   0  0  0  0  0  0  0  0  0  0  0  0
    2.4514    1.0680   -1.5714 C   0  0  0  0  0  0  0  0  0  0  0  0
    1.6008    0.9316   -0.4038 O   0  0  0  0  0  0  0  0  0  0  0  0
    1.8268   -0.1504    0.7231 P   0  0  0  0  0  0  0  0  0  0  0  0
    0.6281    0.2200    2.2249 S   0  0  0  0  0  0  0  0  0  0  0  0
    3.3817   -0.0301    1.0203 O   0  0  0  0  0  0  0  0  0  0  0  0
    4.1859   -1.0543    1.6356 C   0  0  0  0  0  0  0  0  0  0  0  0
    3.6020   -1.5584    2.9381 C   0  0  0  0  0  0  0  0  0  0  0  0
    1.7210   -2.0497   -0.2531 S   0  0  0  0  0  0  0  0  0  0  0  0
    0.1354   -1.8916   -1.1131 C   0  0  0  0  0  0  0  0  0  0  0  0
   -1.2821   -1.5922   -0.0147 S   0  0  0  0  0  0  0  0  0  0  0  0
   -2.0410    0.2180   -0.8567 P   0  0  0  0  0  0  0  0  0  0  0  0
   -1.0705    0.9241   -2.3979 S   0  0  0  0  0  0  0  0  0  0  0  0
   -2.2456    1.2389    0.3441 O   0  0  0  0  0  0  0  0  0  0  0  0
   -1.4252    2.3934    0.5811 C   0  0  0  0  0  0  0  0  0  0  0  0
   -2.1234    3.6350    0.0636 C   0  0  0  0  0  0  0  0  0  0  0  0
   -3.5219   -0.1558   -1.2564 O   0  0  0  0  0  0  0  0  0  0  0  0
   -4.4140   -1.0429   -0.5436 C   0  0  0  0  0  0  0  0  0  0  0  0
   -4.5821   -0.6575    0.9099 C   0  0  0  0  0  0  0  0  0  0  0  0
    4.0418    2.3010   -2.2696 H   0  0  0  0  0  0  0  0  0  0  0  0
    2.9251    3.1202   -1.1660 H   0  0  0  0  0  0  0  0  0  0  0  0
    4.1013    1.9644   -0.5290 H   0  0  0  0  0  0  0  0  0  0  0  0
    2.9575    0.1170   -1.7568 H   0  0  0  0  0  0  0  0  0  0  0  0
    1.7606    1.2875   -2.3896 H   0  0  0  0  0  0  0  0  0  0  0  0
    4.2972   -1.8740    0.9202 H   0  0  0  0  0  0  0  0  0  0  0  0
    5.1485   -0.5645    1.7932 H   0  0  0  0  0  0  0  0  0  0  0  0
    2.6467   -2.0497    2.7556 H   0  0  0  0  0  0  0  0  0  0  0  0
    4.2855   -2.2713    3.3877 H   0  0  0  0  0  0  0  0  0  0  0  0
    3.4367   -0.7325    3.6260 H   0  0  0  0  0  0  0  0  0  0  0  0
   -0.0143   -2.8511   -1.6024 H   0  0  0  0  0  0  0  0  0  0  0  0
    0.1813   -1.0795   -1.8451 H   0  0  0  0  0  0  0  0  0  0  0  0
   -1.2785    2.4261    1.6626 H   0  0  0  0  0  0  0  0  0  0  0  0
   -0.4546    2.2620    0.0942 H   0  0  0  0  0  0  0  0  0  0  0  0
   -1.5209    4.5067    0.2973 H   0  0  0  0  0  0  0  0  0  0  0  0
   -2.2494    3.5660   -1.0154 H   0  0  0  0  0  0  0  0  0  0  0  0
   -3.1001    3.7353    0.5282 H   0  0  0  0  0  0  0  0  0  0  0  0
   -5.3492   -0.9527   -1.0981 H   0  0  0  0  0  0  0  0  0  0  0  0
   -4.0249   -2.0606   -0.6328 H   0  0  0  0  0  0  0  0  0  0  0  0
   -3.6302   -0.7426    1.4337 H   0  0  0  0  0  0  0  0  0  0  0  0
   -4.9341    0.3673    0.9929 H   0  0  0  0  0  0  0  0  0  0  0  0
   -5.3005   -1.3251    1.3755 H   0  0  0  0  0  0  0  0  0  0  0  0
  1  2  1  0  0  0  0
  2  3  1  0  0  0  0
  3  4  2  0  0  0  0
  4  5  2  0  0  0  0
  4  6  2  0  0  0  0
  6  7  1  0  0  0  0
  7  8  1  0  0  0  0
  4  9  1  0  0  0  0
  9 10  1  0  0  0  0
 10 11  1  0  0  0  0
 11 12  1  0  0  0  0
 12 13  2  0  0  0  0
 12 14  2  0  0  0  0
 14 15  1  0  0  0  0
 15 16  1  0  0  0  0
 12 17  2  0  0  0  0
 17 18  1  0  0  0  0
 18 19  1  0  0  0  0
  1 20  1  0  0  0  0
  1 21  1  0  0  0  0
  1 22  1  0  0  0  0
  2 23  1  0  0  0  0
  2 24  1  0  0  0  0
  7 25  1  0  0  0  0
  7 26  1  0  0  0  0
  8 27  1  0  0  0  0
  8 28  1  0  0  0  0
  8 29  1  0  0  0  0
 10 30  1  0  0  0  0
 10 31  1  0  0  0  0
 15 32  1  0  0  0  0
 15 33  1  0  0  0  0
 16 34  1  0  0  0  0
 16 35  1  0  0  0  0
 16 36  1  0  0  0  0
 18 37  1  0  0  0  0
 18 38  1  0  0  0  0
 19 39  1  0  0  0  0
 19 40  1  0  0  0  0
 19 41  1  0  0  0  0
M  END
