 xtb: 6.7.1 (edcfbbe)
          04092505213D

 41 40  0     0  0            999 V2000
    5.1521   -1.5114   -1.5588 C   0  0  0  0  0  0  0  0  0  0  0  0
    3.7038   -1.7100   -1.9617 C   0  0  0  0  0  0  0  0  0  0  0  0
    2.8464   -1.7279   -0.8018 O   0  0  0  0  0  0  0  0  0  0  0  0
    2.0937   -0.4301   -0.2713 P   0  0  0  0  0  0  0  0  0  0  0  0
    3.2048    1.1586    0.0414 S   0  0  0  0  0  0  0  0  0  0  0  0
    1.3545   -1.0249    0.9897 O   0  0  0  0  0  0  0  0  0  0  0  0
    1.8548   -0.9278    2.3424 C   0  0  0  0  0  0  0  0  0  0  0  0
    0.8100   -0.2718    3.2234 C   0  0  0  0  0  0  0  0  0  0  0  0
    0.5228   -0.2175   -1.6678 S   0  0  0  0  0  0  0  0  0  0  0  0
    0.0712    1.4832   -1.2322 C   0  0  0  0  0  0  0  0  0  0  0  0
   -0.5400    1.6236    0.4628 S   0  0  0  0  0  0  0  0  0  0  0  0
   -2.2603    0.4059    0.2081 P   0  0  0  0  0  0  0  0  0  0  0  0
   -3.1571    0.5572   -1.5344 S   0  0  0  0  0  0  0  0  0  0  0  0
   -3.1027    0.7233    1.5125 O   0  0  0  0  0  0  0  0  0  0  0  0
   -3.4180    2.0391    2.0046 C   0  0  0  0  0  0  0  0  0  0  0  0
   -4.1168    2.9001    0.9724 C   0  0  0  0  0  0  0  0  0  0  0  0
   -1.8221   -1.0680    0.5902 O   0  0  0  0  0  0  0  0  0  0  0  0
   -2.0677   -2.2266   -0.2348 C   0  0  0  0  0  0  0  0  0  0  0  0
   -0.9716   -3.2433    0.0082 C   0  0  0  0  0  0  0  0  0  0  0  0
    5.2834   -0.5384   -1.0905 H   0  0  0  0  0  0  0  0  0  0  0  0
    5.4523   -2.2826   -0.8550 H   0  0  0  0  0  0  0  0  0  0  0  0
    5.7796   -1.5663   -2.4424 H   0  0  0  0  0  0  0  0  0  0  0  0
    3.5509   -2.6834   -2.4314 H   0  0  0  0  0  0  0  0  0  0  0  0
    3.3734   -0.9212   -2.6435 H   0  0  0  0  0  0  0  0  0  0  0  0
    2.0589   -1.9522    2.6592 H   0  0  0  0  0  0  0  0  0  0  0  0
    2.7858   -0.3519    2.3399 H   0  0  0  0  0  0  0  0  0  0  0  0
    1.1166   -0.3533    4.2611 H   0  0  0  0  0  0  0  0  0  0  0  0
    0.7017    0.7786    2.9638 H   0  0  0  0  0  0  0  0  0  0  0  0
   -0.1500   -0.7647    3.0893 H   0  0  0  0  0  0  0  0  0  0  0  0
   -0.7081    1.7837   -1.9324 H   0  0  0  0  0  0  0  0  0  0  0  0
    0.9476    2.1271   -1.3028 H   0  0  0  0  0  0  0  0  0  0  0  0
   -4.0631    1.8421    2.8628 H   0  0  0  0  0  0  0  0  0  0  0  0
   -2.4906    2.5118    2.3397 H   0  0  0  0  0  0  0  0  0  0  0  0
   -4.9975    2.3913    0.5878 H   0  0  0  0  0  0  0  0  0  0  0  0
   -4.4143    3.8389    1.4284 H   0  0  0  0  0  0  0  0  0  0  0  0
   -3.4473    3.1073    0.1387 H   0  0  0  0  0  0  0  0  0  0  0  0
   -3.0442   -2.6258    0.0504 H   0  0  0  0  0  0  0  0  0  0  0  0
   -2.1039   -1.9185   -1.2853 H   0  0  0  0  0  0  0  0  0  0  0  0
   -1.1808   -4.1318   -0.5786 H   0  0  0  0  0  0  0  0  0  0  0  0
   -0.0051   -2.8413   -0.2860 H   0  0  0  0  0  0  0  0  0  0  0  0
   -0.9348   -3.5052    1.0616 H   0  0  0  0  0  0  0  0  0  0  0  0
  1  2  1  0  0  0  0
  2  3  1  0  0  0  0
  3  4  2  0  0  0  0
  4  5  2  0  0  0  0
  4  6  2  0  0  0  0
  6  7  1  0  0  0  0
  7  8  1  0  0  0  0
  4  9  1  0  0  0  0
  9 10  1  0  0  0  0
 10 11  1  0  0  0  0
 11 12  1  0  0  0  0
 12 13  2  0  0  0  0
 12 14  2  0  0  0  0
 14 15  1  0  0  0  0
 15 16  1  0  0  0  0
 12 17  2  0  0  0  0
 17 18  1  0  0  0  0
 18 19  1  0  0  0  0
  1 20  1  0  0  0  0
  1 21  1  0  0  0  0
  1 22  1  0  0  0  0
  2 23  1  0  0  0  0
  2 24  1  0  0  0  0
  7 25  1  0  0  0  0
  7 26  1  0  0  0  0
  8 27  1  0  0  0  0
  8 28  1  0  0  0  0
  8 29  1  0  0  0  0
 10 30  1  0  0  0  0
 10 31  1  0  0  0  0
 15 32  1  0  0  0  0
 15 33  1  0  0  0  0
 16 34  1  0  0  0  0
 16 35  1  0  0  0  0
 16 36  1  0  0  0  0
 18 37  1  0  0  0  0
 18 38  1  0  0  0  0
 19 39  1  0  0  0  0
 19 40  1  0  0  0  0
 19 41  1  0  0  0  0
M  END
