 xtb: 6.7.1 (edcfbbe)
          04092505213D

 41 40  0     0  0            999 V2000
    2.3559   -2.1279    2.7536 C   0  0  0  0  0  0  0  0  0  0  0  0
    1.9035   -1.8406    1.3359 C   0  0  0  0  0  0  0  0  0  0  0  0
    1.8917   -0.4112    1.1326 O   0  0  0  0  0  0  0  0  0  0  0  0
    2.4272    0.3398   -0.1629 P   0  0  0  0  0  0  0  0  0  0  0  0
    3.4762   -0.7837   -1.3817 S   0  0  0  0  0  0  0  0  0  0  0  0
    3.1136    1.6471    0.4043 O   0  0  0  0  0  0  0  0  0  0  0  0
    4.5326    1.7184    0.6609 C   0  0  0  0  0  0  0  0  0  0  0  0
    4.9564    0.7764    1.7685 C   0  0  0  0  0  0  0  0  0  0  0  0
    0.7459    1.3233   -0.9877 S   0  0  0  0  0  0  0  0  0  0  0  0
    0.0436   -0.1430   -1.7984 C   0  0  0  0  0  0  0  0  0  0  0  0
   -0.9274   -1.1598   -0.6679 S   0  0  0  0  0  0  0  0  0  0  0  0
   -2.5084    0.2518   -0.3779 P   0  0  0  0  0  0  0  0  0  0  0  0
   -2.9777    1.2224   -2.0133 S   0  0  0  0  0  0  0  0  0  0  0  0
   -2.1215    1.2273    0.7929 O   0  0  0  0  0  0  0  0  0  0  0  0
   -2.2126    0.9431    2.2125 C   0  0  0  0  0  0  0  0  0  0  0  0
   -1.2712   -0.1606    2.6443 C   0  0  0  0  0  0  0  0  0  0  0  0
   -3.6593   -0.6290    0.2646 O   0  0  0  0  0  0  0  0  0  0  0  0
   -4.3897   -1.5904   -0.5280 C   0  0  0  0  0  0  0  0  0  0  0  0
   -5.6466   -1.9588    0.2333 C   0  0  0  0  0  0  0  0  0  0  0  0
    3.3785   -1.7946    2.9059 H   0  0  0  0  0  0  0  0  0  0  0  0
    1.7090   -1.6181    3.4614 H   0  0  0  0  0  0  0  0  0  0  0  0
    2.3016   -3.1977    2.9262 H   0  0  0  0  0  0  0  0  0  0  0  0
    0.8875   -2.2028    1.1623 H   0  0  0  0  0  0  0  0  0  0  0  0
    2.5744   -2.2937    0.5985 H   0  0  0  0  0  0  0  0  0  0  0  0
    5.0637    1.4865   -0.2675 H   0  0  0  0  0  0  0  0  0  0  0  0
    4.6955    2.7630    0.9296 H   0  0  0  0  0  0  0  0  0  0  0  0
    4.3563    0.9494    2.6582 H   0  0  0  0  0  0  0  0  0  0  0  0
    4.8259   -0.2548    1.4413 H   0  0  0  0  0  0  0  0  0  0  0  0
    6.0041    0.9415    2.0004 H   0  0  0  0  0  0  0  0  0  0  0  0
    0.8464   -0.7653   -2.1952 H   0  0  0  0  0  0  0  0  0  0  0  0
   -0.6077    0.2194   -2.5944 H   0  0  0  0  0  0  0  0  0  0  0  0
   -1.9501    1.8983    2.6700 H   0  0  0  0  0  0  0  0  0  0  0  0
   -3.2488    0.6897    2.4427 H   0  0  0  0  0  0  0  0  0  0  0  0
   -0.2524    0.0765    2.3464 H   0  0  0  0  0  0  0  0  0  0  0  0
   -1.3140   -0.2568    3.7250 H   0  0  0  0  0  0  0  0  0  0  0  0
   -1.5637   -1.1058    2.1912 H   0  0  0  0  0  0  0  0  0  0  0  0
   -4.6231   -1.1365   -1.4966 H   0  0  0  0  0  0  0  0  0  0  0  0
   -3.7457   -2.4593   -0.6853 H   0  0  0  0  0  0  0  0  0  0  0  0
   -6.2626   -1.0772    0.3870 H   0  0  0  0  0  0  0  0  0  0  0  0
   -6.2068   -2.6897   -0.3404 H   0  0  0  0  0  0  0  0  0  0  0  0
   -5.3873   -2.3822    1.1991 H   0  0  0  0  0  0  0  0  0  0  0  0
  1  2  1  0  0  0  0
  2  3  1  0  0  0  0
  3  4  2  0  0  0  0
  4  5  2  0  0  0  0
  4  6  2  0  0  0  0
  6  7  1  0  0  0  0
  7  8  1  0  0  0  0
  4  9  1  0  0  0  0
  9 10  1  0  0  0  0
 10 11  1  0  0  0  0
 11 12  1  0  0  0  0
 12 13  2  0  0  0  0
 12 14  2  0  0  0  0
 14 15  1  0  0  0  0
 15 16  1  0  0  0  0
 12 17  2  0  0  0  0
 17 18  1  0  0  0  0
 18 19  1  0  0  0  0
  1 20  1  0  0  0  0
  1 21  1  0  0  0  0
  1 22  1  0  0  0  0
  2 23  1  0  0  0  0
  2 24  1  0  0  0  0
  7 25  1  0  0  0  0
  7 26  1  0  0  0  0
  8 27  1  0  0  0  0
  8 28  1  0  0  0  0
  8 29  1  0  0  0  0
 10 30  1  0  0  0  0
 10 31  1  0  0  0  0
 15 32  1  0  0  0  0
 15 33  1  0  0  0  0
 16 34  1  0  0  0  0
 16 35  1  0  0  0  0
 16 36  1  0  0  0  0
 18 37  1  0  0  0  0
 18 38  1  0  0  0  0
 19 39  1  0  0  0  0
 19 40  1  0  0  0  0
 19 41  1  0  0  0  0
M  END
