 xtb: 6.7.1 (edcfbbe)
          04092505203D

 41 40  0     0  0            999 V2000
    4.2765    0.0465   -2.1981 C   0  0  0  0  0  0  0  0  0  0  0  0
    2.8745   -0.5068   -2.0535 C   0  0  0  0  0  0  0  0  0  0  0  0
    2.0972    0.3014   -1.1339 O   0  0  0  0  0  0  0  0  0  0  0  0
    1.9153   -0.0155    0.3939 P   0  0  0  0  0  0  0  0  0  0  0  0
    0.8548    1.3485    1.3106 S   0  0  0  0  0  0  0  0  0  0  0  0
    3.4069   -0.1458    0.9252 O   0  0  0  0  0  0  0  0  0  0  0  0
    3.6837   -0.3586    2.3251 C   0  0  0  0  0  0  0  0  0  0  0  0
    5.1352   -0.0026    2.5737 C   0  0  0  0  0  0  0  0  0  0  0  0
    1.2693   -2.0376    0.5362 S   0  0  0  0  0  0  0  0  0  0  0  0
   -0.3542   -1.9430   -0.2676 C   0  0  0  0  0  0  0  0  0  0  0  0
   -1.6241   -1.0927    0.7141 S   0  0  0  0  0  0  0  0  0  0  0  0
   -2.0632    0.5590   -0.5640 P   0  0  0  0  0  0  0  0  0  0  0  0
   -0.9439    0.6988   -2.1643 S   0  0  0  0  0  0  0  0  0  0  0  0
   -2.0463    1.8742    0.2972 O   0  0  0  0  0  0  0  0  0  0  0  0
   -3.0380    2.2646    1.2770 C   0  0  0  0  0  0  0  0  0  0  0  0
   -3.1053    1.3033    2.4439 C   0  0  0  0  0  0  0  0  0  0  0  0
   -3.6245    0.4216   -0.8683 O   0  0  0  0  0  0  0  0  0  0  0  0
   -4.1549   -0.3521   -1.9575 C   0  0  0  0  0  0  0  0  0  0  0  0
   -3.9108   -1.8384   -1.7923 C   0  0  0  0  0  0  0  0  0  0  0  0
    4.8018   -0.0084   -1.2483 H   0  0  0  0  0  0  0  0  0  0  0  0
    4.8115   -0.5367   -2.9411 H   0  0  0  0  0  0  0  0  0  0  0  0
    4.2355    1.0845   -2.5171 H   0  0  0  0  0  0  0  0  0  0  0  0
    2.8921   -1.5387   -1.6915 H   0  0  0  0  0  0  0  0  0  0  0  0
    2.3188   -0.4484   -2.9920 H   0  0  0  0  0  0  0  0  0  0  0  0
    3.0079    0.2724    2.9119 H   0  0  0  0  0  0  0  0  0  0  0  0
    3.4835   -1.4087    2.5535 H   0  0  0  0  0  0  0  0  0  0  0  0
    5.3644   -0.1611    3.6222 H   0  0  0  0  0  0  0  0  0  0  0  0
    5.7818   -0.6286    1.9657 H   0  0  0  0  0  0  0  0  0  0  0  0
    5.3124    1.0393    2.3215 H   0  0  0  0  0  0  0  0  0  0  0  0
   -0.6651   -2.9767   -0.3957 H   0  0  0  0  0  0  0  0  0  0  0  0
   -0.2564   -1.4263   -1.2273 H   0  0  0  0  0  0  0  0  0  0  0  0
   -2.6938    3.2512    1.5912 H   0  0  0  0  0  0  0  0  0  0  0  0
   -4.0030    2.3442    0.7721 H   0  0  0  0  0  0  0  0  0  0  0  0
   -2.1136    1.1683    2.8709 H   0  0  0  0  0  0  0  0  0  0  0  0
   -3.7696    1.7082    3.2008 H   0  0  0  0  0  0  0  0  0  0  0  0
   -3.4841    0.3355    2.1183 H   0  0  0  0  0  0  0  0  0  0  0  0
   -5.2201   -0.1161   -1.9436 H   0  0  0  0  0  0  0  0  0  0  0  0
   -3.7054    0.0104   -2.8872 H   0  0  0  0  0  0  0  0  0  0  0  0
   -4.4631   -2.3755   -2.5567 H   0  0  0  0  0  0  0  0  0  0  0  0
   -2.8503   -2.0555   -1.9071 H   0  0  0  0  0  0  0  0  0  0  0  0
   -4.2374   -2.1702   -0.8102 H   0  0  0  0  0  0  0  0  0  0  0  0
  1  2  1  0  0  0  0
  2  3  1  0  0  0  0
  3  4  2  0  0  0  0
  4  5  2  0  0  0  0
  4  6  2  0  0  0  0
  6  7  1  0  0  0  0
  7  8  1  0  0  0  0
  4  9  1  0  0  0  0
  9 10  1  0  0  0  0
 10 11  1  0  0  0  0
 11 12  1  0  0  0  0
 12 13  2  0  0  0  0
 12 14  2  0  0  0  0
 14 15  1  0  0  0  0
 15 16  1  0  0  0  0
 12 17  2  0  0  0  0
 17 18  1  0  0  0  0
 18 19  1  0  0  0  0
  1 20  1  0  0  0  0
  1 21  1  0  0  0  0
  1 22  1  0  0  0  0
  2 23  1  0  0  0  0
  2 24  1  0  0  0  0
  7 25  1  0  0  0  0
  7 26  1  0  0  0  0
  8 27  1  0  0  0  0
  8 28  1  0  0  0  0
  8 29  1  0  0  0  0
 10 30  1  0  0  0  0
 10 31  1  0  0  0  0
 15 32  1  0  0  0  0
 15 33  1  0  0  0  0
 16 34  1  0  0  0  0
 16 35  1  0  0  0  0
 16 36  1  0  0  0  0
 18 37  1  0  0  0  0
 18 38  1  0  0  0  0
 19 39  1  0  0  0  0
 19 40  1  0  0  0  0
 19 41  1  0  0  0  0
M  END
