 xtb: 6.7.1 (edcfbbe)
          04092505213D

 41 40  0     0  0            999 V2000
    1.0322    2.2893    1.9155 C   0  0  0  0  0  0  0  0  0  0  0  0
    2.3653    1.6186    2.1765 C   0  0  0  0  0  0  0  0  0  0  0  0
    2.9354    1.0861    0.9702 O   0  0  0  0  0  0  0  0  0  0  0  0
    2.4903   -0.3133    0.3507 P   0  0  0  0  0  0  0  0  0  0  0  0
    2.1253   -1.6901    1.7058 S   0  0  0  0  0  0  0  0  0  0  0  0
    3.6811   -0.5855   -0.6574 O   0  0  0  0  0  0  0  0  0  0  0  0
    5.0103   -0.9304   -0.2031 C   0  0  0  0  0  0  0  0  0  0  0  0
    5.1993   -2.4347   -0.1912 C   0  0  0  0  0  0  0  0  0  0  0  0
    1.0039    0.0919   -1.0919 S   0  0  0  0  0  0  0  0  0  0  0  0
   -0.0847   -1.3243   -0.7598 C   0  0  0  0  0  0  0  0  0  0  0  0
   -1.2208   -1.0475    0.6274 S   0  0  0  0  0  0  0  0  0  0  0  0
   -2.4730    0.3153   -0.3812 P   0  0  0  0  0  0  0  0  0  0  0  0
   -2.8296   -0.0184   -2.2849 S   0  0  0  0  0  0  0  0  0  0  0  0
   -1.7319    1.6625   -0.0042 O   0  0  0  0  0  0  0  0  0  0  0  0
   -2.0416    2.9248   -0.6381 C   0  0  0  0  0  0  0  0  0  0  0  0
   -1.0830    3.1958   -1.7808 C   0  0  0  0  0  0  0  0  0  0  0  0
   -3.7864    0.4305    0.5093 O   0  0  0  0  0  0  0  0  0  0  0  0
   -4.9340   -0.4106    0.2986 C   0  0  0  0  0  0  0  0  0  0  0  0
   -4.6527   -1.8546    0.6604 C   0  0  0  0  0  0  0  0  0  0  0  0
    0.6833    2.7625    2.8278 H   0  0  0  0  0  0  0  0  0  0  0  0
    1.1371    3.0406    1.1369 H   0  0  0  0  0  0  0  0  0  0  0  0
    0.2926    1.5562    1.5966 H   0  0  0  0  0  0  0  0  0  0  0  0
    2.2572    0.8043    2.9014 H   0  0  0  0  0  0  0  0  0  0  0  0
    3.1091    2.3339    2.5311 H   0  0  0  0  0  0  0  0  0  0  0  0
    5.6763   -0.4510   -0.9226 H   0  0  0  0  0  0  0  0  0  0  0  0
    5.1748   -0.5032    0.7894 H   0  0  0  0  0  0  0  0  0  0  0  0
    4.5268   -2.8939    0.5303 H   0  0  0  0  0  0  0  0  0  0  0  0
    4.9892   -2.8435   -1.1755 H   0  0  0  0  0  0  0  0  0  0  0  0
    6.2237   -2.6652    0.0832 H   0  0  0  0  0  0  0  0  0  0  0  0
    0.5110   -2.1971   -0.5018 H   0  0  0  0  0  0  0  0  0  0  0  0
   -0.6638   -1.4874   -1.6688 H   0  0  0  0  0  0  0  0  0  0  0  0
   -3.0769    2.9091   -0.9892 H   0  0  0  0  0  0  0  0  0  0  0  0
   -1.9355    3.6629    0.1584 H   0  0  0  0  0  0  0  0  0  0  0  0
   -0.0560    3.1362   -1.4311 H   0  0  0  0  0  0  0  0  0  0  0  0
   -1.2182    2.4589   -2.5694 H   0  0  0  0  0  0  0  0  0  0  0  0
   -1.2734    4.1858   -2.1823 H   0  0  0  0  0  0  0  0  0  0  0  0
   -5.7005    0.0253    0.9407 H   0  0  0  0  0  0  0  0  0  0  0  0
   -5.2343   -0.3290   -0.7511 H   0  0  0  0  0  0  0  0  0  0  0  0
   -4.2516   -1.9206    1.6687 H   0  0  0  0  0  0  0  0  0  0  0  0
   -5.5722   -2.4277    0.5982 H   0  0  0  0  0  0  0  0  0  0  0  0
   -3.9258   -2.2767   -0.0327 H   0  0  0  0  0  0  0  0  0  0  0  0
  1  2  1  0  0  0  0
  2  3  1  0  0  0  0
  3  4  2  0  0  0  0
  4  5  2  0  0  0  0
  4  6  2  0  0  0  0
  6  7  1  0  0  0  0
  7  8  1  0  0  0  0
  4  9  1  0  0  0  0
  9 10  1  0  0  0  0
 10 11  1  0  0  0  0
 11 12  1  0  0  0  0
 12 13  2  0  0  0  0
 12 14  2  0  0  0  0
 14 15  1  0  0  0  0
 15 16  1  0  0  0  0
 12 17  2  0  0  0  0
 17 18  1  0  0  0  0
 18 19  1  0  0  0  0
  1 20  1  0  0  0  0
  1 21  1  0  0  0  0
  1 22  1  0  0  0  0
  2 23  1  0  0  0  0
  2 24  1  0  0  0  0
  7 25  1  0  0  0  0
  7 26  1  0  0  0  0
  8 27  1  0  0  0  0
  8 28  1  0  0  0  0
  8 29  1  0  0  0  0
 10 30  1  0  0  0  0
 10 31  1  0  0  0  0
 15 32  1  0  0  0  0
 15 33  1  0  0  0  0
 16 34  1  0  0  0  0
 16 35  1  0  0  0  0
 16 36  1  0  0  0  0
 18 37  1  0  0  0  0
 18 38  1  0  0  0  0
 19 39  1  0  0  0  0
 19 40  1  0  0  0  0
 19 41  1  0  0  0  0
M  END
