 xtb: 6.7.1 (edcfbbe)
          04092505213D

 41 40  0     0  0            999 V2000
    2.9787    2.5546   -0.3958 C   0  0  0  0  0  0  0  0  0  0  0  0
    3.4837    1.5313    0.6006 C   0  0  0  0  0  0  0  0  0  0  0  0
    2.3660    0.8154    1.1945 O   0  0  0  0  0  0  0  0  0  0  0  0
    2.0935   -0.7149    0.9356 P   0  0  0  0  0  0  0  0  0  0  0  0
    0.5755   -1.3829    1.9678 S   0  0  0  0  0  0  0  0  0  0  0  0
    3.5056   -1.3569    1.2899 O   0  0  0  0  0  0  0  0  0  0  0  0
    3.6813   -2.7550    1.5829 C   0  0  0  0  0  0  0  0  0  0  0  0
    3.3956   -3.6388    0.3863 C   0  0  0  0  0  0  0  0  0  0  0  0
    1.9608   -0.9446   -1.1847 S   0  0  0  0  0  0  0  0  0  0  0  0
    0.1945   -0.6519   -1.3089 C   0  0  0  0  0  0  0  0  0  0  0  0
   -0.2097    1.1071   -0.9704 S   0  0  0  0  0  0  0  0  0  0  0  0
   -2.2324    0.7768   -0.5465 P   0  0  0  0  0  0  0  0  0  0  0  0
   -3.1731   -0.5344   -1.6671 S   0  0  0  0  0  0  0  0  0  0  0  0
   -2.9106    2.2156   -0.5191 O   0  0  0  0  0  0  0  0  0  0  0  0
   -3.5040    2.8059   -1.6903 C   0  0  0  0  0  0  0  0  0  0  0  0
   -2.4590    3.1989   -2.7141 C   0  0  0  0  0  0  0  0  0  0  0  0
   -2.1158    0.4567    0.9996 O   0  0  0  0  0  0  0  0  0  0  0  0
   -3.2335   -0.0216    1.7814 C   0  0  0  0  0  0  0  0  0  0  0  0
   -3.2304   -1.5354    1.8567 C   0  0  0  0  0  0  0  0  0  0  0  0
    2.2529    3.2097    0.0777 H   0  0  0  0  0  0  0  0  0  0  0  0
    3.8178    3.1432   -0.7525 H   0  0  0  0  0  0  0  0  0  0  0  0
    2.4989    2.0657   -1.2405 H   0  0  0  0  0  0  0  0  0  0  0  0
    3.9878    2.0095    1.4418 H   0  0  0  0  0  0  0  0  0  0  0  0
    4.1572    0.8130    0.1287 H   0  0  0  0  0  0  0  0  0  0  0  0
    4.7248   -2.8224    1.8939 H   0  0  0  0  0  0  0  0  0  0  0  0
    3.0260   -3.0159    2.4197 H   0  0  0  0  0  0  0  0  0  0  0  0
    2.3338   -3.6122    0.1467 H   0  0  0  0  0  0  0  0  0  0  0  0
    3.9593   -3.3002   -0.4792 H   0  0  0  0  0  0  0  0  0  0  0  0
    3.6754   -4.6603    0.6232 H   0  0  0  0  0  0  0  0  0  0  0  0
   -0.3244   -1.2704   -0.5734 H   0  0  0  0  0  0  0  0  0  0  0  0
   -0.1093   -0.9038   -2.3224 H   0  0  0  0  0  0  0  0  0  0  0  0
   -4.2122    2.0883   -2.1172 H   0  0  0  0  0  0  0  0  0  0  0  0
   -4.0397    3.6736   -1.3032 H   0  0  0  0  0  0  0  0  0  0  0  0
   -1.6995    3.8275   -2.2561 H   0  0  0  0  0  0  0  0  0  0  0  0
   -1.9799    2.3072   -3.1166 H   0  0  0  0  0  0  0  0  0  0  0  0
   -2.9360    3.7395   -3.5252 H   0  0  0  0  0  0  0  0  0  0  0  0
   -3.0819    0.4235    2.7661 H   0  0  0  0  0  0  0  0  0  0  0  0
   -4.1634    0.3530    1.3446 H   0  0  0  0  0  0  0  0  0  0  0  0
   -4.0091   -1.8625    2.5379 H   0  0  0  0  0  0  0  0  0  0  0  0
   -3.4130   -1.9654    0.8740 H   0  0  0  0  0  0  0  0  0  0  0  0
   -2.2649   -1.8835    2.2176 H   0  0  0  0  0  0  0  0  0  0  0  0
  1  2  1  0  0  0  0
  2  3  1  0  0  0  0
  3  4  2  0  0  0  0
  4  5  2  0  0  0  0
  4  6  2  0  0  0  0
  6  7  1  0  0  0  0
  7  8  1  0  0  0  0
  4  9  1  0  0  0  0
  9 10  1  0  0  0  0
 10 11  1  0  0  0  0
 11 12  1  0  0  0  0
 12 13  2  0  0  0  0
 12 14  2  0  0  0  0
 14 15  1  0  0  0  0
 15 16  1  0  0  0  0
 12 17  2  0  0  0  0
 17 18  1  0  0  0  0
 18 19  1  0  0  0  0
  1 20  1  0  0  0  0
  1 21  1  0  0  0  0
  1 22  1  0  0  0  0
  2 23  1  0  0  0  0
  2 24  1  0  0  0  0
  7 25  1  0  0  0  0
  7 26  1  0  0  0  0
  8 27  1  0  0  0  0
  8 28  1  0  0  0  0
  8 29  1  0  0  0  0
 10 30  1  0  0  0  0
 10 31  1  0  0  0  0
 15 32  1  0  0  0  0
 15 33  1  0  0  0  0
 16 34  1  0  0  0  0
 16 35  1  0  0  0  0
 16 36  1  0  0  0  0
 18 37  1  0  0  0  0
 18 38  1  0  0  0  0
 19 39  1  0  0  0  0
 19 40  1  0  0  0  0
 19 41  1  0  0  0  0
M  END
