 xtb: 6.7.1 (edcfbbe)
          04092505213D

 41 40  0     0  0            999 V2000
    4.4374   -1.6868   -1.9905 C   0  0  0  0  0  0  0  0  0  0  0  0
    3.6638   -2.3205   -0.8536 C   0  0  0  0  0  0  0  0  0  0  0  0
    3.2846   -1.3702    0.1601 O   0  0  0  0  0  0  0  0  0  0  0  0
    2.4704   -0.0295   -0.0937 P   0  0  0  0  0  0  0  0  0  0  0  0
    3.4012    1.5239   -0.8350 S   0  0  0  0  0  0  0  0  0  0  0  0
    1.9694    0.3175    1.3561 O   0  0  0  0  0  0  0  0  0  0  0  0
    1.2182   -0.5867    2.2057 C   0  0  0  0  0  0  0  0  0  0  0  0
    0.7083    0.2233    3.3793 C   0  0  0  0  0  0  0  0  0  0  0  0
    0.7829   -0.7074   -1.2163 S   0  0  0  0  0  0  0  0  0  0  0  0
    0.1271    0.9373   -1.5530 C   0  0  0  0  0  0  0  0  0  0  0  0
   -0.6901    1.6781   -0.1158 S   0  0  0  0  0  0  0  0  0  0  0  0
   -2.4115    0.4526   -0.2021 P   0  0  0  0  0  0  0  0  0  0  0  0
   -3.1088   -0.0348   -1.9604 S   0  0  0  0  0  0  0  0  0  0  0  0
   -3.5115    1.2550    0.6092 O   0  0  0  0  0  0  0  0  0  0  0  0
   -3.2893    1.9500    1.8597 C   0  0  0  0  0  0  0  0  0  0  0  0
   -3.2952    1.0039    3.0434 C   0  0  0  0  0  0  0  0  0  0  0  0
   -1.9279   -0.7712    0.7104 O   0  0  0  0  0  0  0  0  0  0  0  0
   -2.5731   -2.0631    0.6580 C   0  0  0  0  0  0  0  0  0  0  0  0
   -1.7643   -3.0322   -0.1804 C   0  0  0  0  0  0  0  0  0  0  0  0
    4.7685   -2.4595   -2.6768 H   0  0  0  0  0  0  0  0  0  0  0  0
    3.8056   -0.9812   -2.5283 H   0  0  0  0  0  0  0  0  0  0  0  0
    5.3019   -1.1490   -1.6084 H   0  0  0  0  0  0  0  0  0  0  0  0
    4.2736   -3.0445   -0.3104 H   0  0  0  0  0  0  0  0  0  0  0  0
    2.7553   -2.8018   -1.2261 H   0  0  0  0  0  0  0  0  0  0  0  0
    0.3927   -1.0067    1.6234 H   0  0  0  0  0  0  0  0  0  0  0  0
    1.8863   -1.3893    2.5235 H   0  0  0  0  0  0  0  0  0  0  0  0
    0.0734    1.0303    3.0223 H   0  0  0  0  0  0  0  0  0  0  0  0
    0.1411   -0.4221    4.0423 H   0  0  0  0  0  0  0  0  0  0  0  0
    1.5429    0.6555    3.9237 H   0  0  0  0  0  0  0  0  0  0  0  0
   -0.5939    0.8374   -2.3649 H   0  0  0  0  0  0  0  0  0  0  0  0
    0.9492    1.6019   -1.8242 H   0  0  0  0  0  0  0  0  0  0  0  0
   -2.3449    2.4971    1.7911 H   0  0  0  0  0  0  0  0  0  0  0  0
   -4.1182    2.6583    1.9098 H   0  0  0  0  0  0  0  0  0  0  0  0
   -2.4523    0.3203    2.9893 H   0  0  0  0  0  0  0  0  0  0  0  0
   -3.2223    1.5844    3.9579 H   0  0  0  0  0  0  0  0  0  0  0  0
   -4.2186    0.4306    3.0575 H   0  0  0  0  0  0  0  0  0  0  0  0
   -2.6348   -2.3887    1.6979 H   0  0  0  0  0  0  0  0  0  0  0  0
   -3.5804   -1.9449    0.2483 H   0  0  0  0  0  0  0  0  0  0  0  0
   -0.7550   -3.1223    0.2111 H   0  0  0  0  0  0  0  0  0  0  0  0
   -2.2455   -4.0046   -0.1647 H   0  0  0  0  0  0  0  0  0  0  0  0
   -1.7072   -2.6799   -1.2081 H   0  0  0  0  0  0  0  0  0  0  0  0
  1  2  1  0  0  0  0
  2  3  1  0  0  0  0
  3  4  2  0  0  0  0
  4  5  2  0  0  0  0
  4  6  2  0  0  0  0
  6  7  1  0  0  0  0
  7  8  1  0  0  0  0
  4  9  1  0  0  0  0
  9 10  1  0  0  0  0
 10 11  1  0  0  0  0
 11 12  1  0  0  0  0
 12 13  2  0  0  0  0
 12 14  2  0  0  0  0
 14 15  1  0  0  0  0
 15 16  1  0  0  0  0
 12 17  1  0  0  0  0
 17 18  1  0  0  0  0
 18 19  1  0  0  0  0
  1 20  1  0  0  0  0
  1 21  1  0  0  0  0
  1 22  1  0  0  0  0
  2 23  1  0  0  0  0
  2 24  1  0  0  0  0
  7 25  1  0  0  0  0
  7 26  1  0  0  0  0
  8 27  1  0  0  0  0
  8 28  1  0  0  0  0
  8 29  1  0  0  0  0
 10 30  1  0  0  0  0
 10 31  1  0  0  0  0
 15 32  1  0  0  0  0
 15 33  1  0  0  0  0
 16 34  1  0  0  0  0
 16 35  1  0  0  0  0
 16 36  1  0  0  0  0
 18 37  1  0  0  0  0
 18 38  1  0  0  0  0
 19 39  1  0  0  0  0
 19 40  1  0  0  0  0
 19 41  1  0  0  0  0
M  END
