 xtb: 6.7.1 (edcfbbe)
          04092505203D

 41 40  0     0  0            999 V2000
    1.0298   -2.7518    1.4520 C   0  0  0  0  0  0  0  0  0  0  0  0
    2.1064   -1.7206    1.7254 C   0  0  0  0  0  0  0  0  0  0  0  0
    1.7879   -0.4604    1.1017 O   0  0  0  0  0  0  0  0  0  0  0  0
    2.4104    0.0132   -0.2929 P   0  0  0  0  0  0  0  0  0  0  0  0
    3.0116   -1.4235   -1.4717 S   0  0  0  0  0  0  0  0  0  0  0  0
    3.6337    0.9656    0.0496 O   0  0  0  0  0  0  0  0  0  0  0  0
    3.5525    2.3181    0.5546 C   0  0  0  0  0  0  0  0  0  0  0  0
    2.8541    2.3988    1.8959 C   0  0  0  0  0  0  0  0  0  0  0  0
    0.9150    1.3343   -0.9861 S   0  0  0  0  0  0  0  0  0  0  0  0
    0.0514    0.1620   -2.0625 C   0  0  0  0  0  0  0  0  0  0  0  0
   -0.7447   -1.1948   -1.1646 S   0  0  0  0  0  0  0  0  0  0  0  0
   -2.0421    0.0008   -0.0016 P   0  0  0  0  0  0  0  0  0  0  0  0
   -2.7970    1.6007   -0.8556 S   0  0  0  0  0  0  0  0  0  0  0  0
   -1.1294    0.2365    1.2711 O   0  0  0  0  0  0  0  0  0  0  0  0
   -1.3147    1.3592    2.1550 C   0  0  0  0  0  0  0  0  0  0  0  0
   -2.6180    1.2646    2.9200 C   0  0  0  0  0  0  0  0  0  0  0  0
   -3.1087   -1.0290    0.5708 O   0  0  0  0  0  0  0  0  0  0  0  0
   -4.3384   -1.3287   -0.1108 C   0  0  0  0  0  0  0  0  0  0  0  0
   -4.1079   -2.1037   -1.3922 C   0  0  0  0  0  0  0  0  0  0  0  0
    0.0535   -2.3501    1.7127 H   0  0  0  0  0  0  0  0  0  0  0  0
    1.0258   -3.0218    0.3981 H   0  0  0  0  0  0  0  0  0  0  0  0
    1.2263   -3.6391    2.0453 H   0  0  0  0  0  0  0  0  0  0  0  0
    3.0775   -2.0683    1.3605 H   0  0  0  0  0  0  0  0  0  0  0  0
    2.1736   -1.4907    2.7904 H   0  0  0  0  0  0  0  0  0  0  0  0
    4.5981    2.6227    0.6234 H   0  0  0  0  0  0  0  0  0  0  0  0
    3.0365    2.9306   -0.1895 H   0  0  0  0  0  0  0  0  0  0  0  0
    3.3517    1.7593    2.6204 H   0  0  0  0  0  0  0  0  0  0  0  0
    2.8782    3.4257    2.2466 H   0  0  0  0  0  0  0  0  0  0  0  0
    1.8176    2.0827    1.7952 H   0  0  0  0  0  0  0  0  0  0  0  0
    0.7629   -0.2988   -2.7472 H   0  0  0  0  0  0  0  0  0  0  0  0
   -0.7001    0.7430   -2.5962 H   0  0  0  0  0  0  0  0  0  0  0  0
   -0.4510    1.3131    2.8203 H   0  0  0  0  0  0  0  0  0  0  0  0
   -1.2789    2.2779    1.5602 H   0  0  0  0  0  0  0  0  0  0  0  0
   -3.4572    1.3428    2.2295 H   0  0  0  0  0  0  0  0  0  0  0  0
   -2.6803    0.3136    3.4424 H   0  0  0  0  0  0  0  0  0  0  0  0
   -2.6747    2.0776    3.6370 H   0  0  0  0  0  0  0  0  0  0  0  0
   -4.9057   -1.9118    0.6158 H   0  0  0  0  0  0  0  0  0  0  0  0
   -4.8561   -0.3869   -0.3199 H   0  0  0  0  0  0  0  0  0  0  0  0
   -3.4962   -2.9814   -1.1985 H   0  0  0  0  0  0  0  0  0  0  0  0
   -5.0638   -2.4128   -1.8027 H   0  0  0  0  0  0  0  0  0  0  0  0
   -3.5971   -1.4763   -2.1215 H   0  0  0  0  0  0  0  0  0  0  0  0
  1  2  1  0  0  0  0
  2  3  1  0  0  0  0
  3  4  1  0  0  0  0
  4  5  2  0  0  0  0
  4  6  2  0  0  0  0
  6  7  1  0  0  0  0
  7  8  1  0  0  0  0
  4  9  1  0  0  0  0
  9 10  1  0  0  0  0
 10 11  1  0  0  0  0
 11 12  1  0  0  0  0
 12 13  2  0  0  0  0
 12 14  2  0  0  0  0
 14 15  1  0  0  0  0
 15 16  1  0  0  0  0
 12 17  2  0  0  0  0
 17 18  1  0  0  0  0
 18 19  1  0  0  0  0
  1 20  1  0  0  0  0
  1 21  1  0  0  0  0
  1 22  1  0  0  0  0
  2 23  1  0  0  0  0
  2 24  1  0  0  0  0
  7 25  1  0  0  0  0
  7 26  1  0  0  0  0
  8 27  1  0  0  0  0
  8 28  1  0  0  0  0
  8 29  1  0  0  0  0
 10 30  1  0  0  0  0
 10 31  1  0  0  0  0
 15 32  1  0  0  0  0
 15 33  1  0  0  0  0
 16 34  1  0  0  0  0
 16 35  1  0  0  0  0
 16 36  1  0  0  0  0
 18 37  1  0  0  0  0
 18 38  1  0  0  0  0
 19 39  1  0  0  0  0
 19 40  1  0  0  0  0
 19 41  1  0  0  0  0
M  END
