 xtb: 6.7.1 (edcfbbe)
          04092505203D

 41 40  0     0  0            999 V2000
    4.3972   -0.1461   -2.1747 C   0  0  0  0  0  0  0  0  0  0  0  0
    4.4078    0.9516   -1.1305 C   0  0  0  0  0  0  0  0  0  0  0  0
    3.6742    0.5922    0.0528 O   0  0  0  0  0  0  0  0  0  0  0  0
    2.0993    0.3608    0.0622 P   0  0  0  0  0  0  0  0  0  0  0  0
    1.0588    1.6139   -1.0269 S   0  0  0  0  0  0  0  0  0  0  0  0
    1.7735    0.4931    1.6003 O   0  0  0  0  0  0  0  0  0  0  0  0
    2.4776   -0.2770    2.6166 C   0  0  0  0  0  0  0  0  0  0  0  0
    1.5328   -1.2578    3.2801 C   0  0  0  0  0  0  0  0  0  0  0  0
    1.9161   -1.7062   -0.4019 S   0  0  0  0  0  0  0  0  0  0  0  0
    0.1547   -1.7328   -0.8020 C   0  0  0  0  0  0  0  0  0  0  0  0
   -0.8886   -1.2004    0.5898 S   0  0  0  0  0  0  0  0  0  0  0  0
   -2.1429    0.2403   -0.3525 P   0  0  0  0  0  0  0  0  0  0  0  0
   -2.0543    0.2352   -2.3093 S   0  0  0  0  0  0  0  0  0  0  0  0
   -1.8727    1.6792    0.2263 O   0  0  0  0  0  0  0  0  0  0  0  0
   -2.2383    2.1558    1.5435 C   0  0  0  0  0  0  0  0  0  0  0  0
   -1.5194    1.4120    2.6493 C   0  0  0  0  0  0  0  0  0  0  0  0
   -3.5561   -0.0744    0.3134 O   0  0  0  0  0  0  0  0  0  0  0  0
   -4.2305   -1.3443    0.2519 C   0  0  0  0  0  0  0  0  0  0  0  0
   -4.9337   -1.5555   -1.0743 C   0  0  0  0  0  0  0  0  0  0  0  0
    5.0734    0.1211   -2.9804 H   0  0  0  0  0  0  0  0  0  0  0  0
    4.7107   -1.0904   -1.7368 H   0  0  0  0  0  0  0  0  0  0  0  0
    3.3944   -0.2620   -2.5837 H   0  0  0  0  0  0  0  0  0  0  0  0
    3.9764    1.8720   -1.5362 H   0  0  0  0  0  0  0  0  0  0  0  0
    5.4152    1.1455   -0.7594 H   0  0  0  0  0  0  0  0  0  0  0  0
    3.3212   -0.7900    2.1507 H   0  0  0  0  0  0  0  0  0  0  0  0
    2.8471    0.4653    3.3254 H   0  0  0  0  0  0  0  0  0  0  0  0
    0.6832   -0.7336    3.7076 H   0  0  0  0  0  0  0  0  0  0  0  0
    1.1643   -1.9833    2.5589 H   0  0  0  0  0  0  0  0  0  0  0  0
    2.0672   -1.7787    4.0681 H   0  0  0  0  0  0  0  0  0  0  0  0
   -0.0809   -2.7667   -1.0417 H   0  0  0  0  0  0  0  0  0  0  0  0
   -0.0532   -1.0751   -1.6512 H   0  0  0  0  0  0  0  0  0  0  0  0
   -1.9463    3.2070    1.5120 H   0  0  0  0  0  0  0  0  0  0  0  0
   -3.3218    2.0716    1.6476 H   0  0  0  0  0  0  0  0  0  0  0  0
   -0.4458    1.4297    2.4716 H   0  0  0  0  0  0  0  0  0  0  0  0
   -1.7342    1.8938    3.5981 H   0  0  0  0  0  0  0  0  0  0  0  0
   -1.8539    0.3764    2.6905 H   0  0  0  0  0  0  0  0  0  0  0  0
   -3.5041   -2.1392    0.4432 H   0  0  0  0  0  0  0  0  0  0  0  0
   -4.9469   -1.2972    1.0746 H   0  0  0  0  0  0  0  0  0  0  0  0
   -5.6235   -0.7381   -1.2679 H   0  0  0  0  0  0  0  0  0  0  0  0
   -4.2115   -1.5947   -1.8868 H   0  0  0  0  0  0  0  0  0  0  0  0
   -5.4843   -2.4900   -1.0411 H   0  0  0  0  0  0  0  0  0  0  0  0
  1  2  1  0  0  0  0
  2  3  1  0  0  0  0
  3  4  2  0  0  0  0
  4  5  2  0  0  0  0
  4  6  2  0  0  0  0
  6  7  1  0  0  0  0
  7  8  1  0  0  0  0
  4  9  1  0  0  0  0
  9 10  1  0  0  0  0
 10 11  1  0  0  0  0
 11 12  1  0  0  0  0
 12 13  2  0  0  0  0
 12 14  2  0  0  0  0
 14 15  1  0  0  0  0
 15 16  1  0  0  0  0
 12 17  2  0  0  0  0
 17 18  1  0  0  0  0
 18 19  1  0  0  0  0
  1 20  1  0  0  0  0
  1 21  1  0  0  0  0
  1 22  1  0  0  0  0
  2 23  1  0  0  0  0
  2 24  1  0  0  0  0
  7 25  1  0  0  0  0
  7 26  1  0  0  0  0
  8 27  1  0  0  0  0
  8 28  1  0  0  0  0
  8 29  1  0  0  0  0
 10 30  1  0  0  0  0
 10 31  1  0  0  0  0
 15 32  1  0  0  0  0
 15 33  1  0  0  0  0
 16 34  1  0  0  0  0
 16 35  1  0  0  0  0
 16 36  1  0  0  0  0
 18 37  1  0  0  0  0
 18 38  1  0  0  0  0
 19 39  1  0  0  0  0
 19 40  1  0  0  0  0
 19 41  1  0  0  0  0
M  END
