 xtb: 6.7.1 (edcfbbe)
          04092507313D

 38 37  0     0  0            999 V2000
    4.4028   -3.4068   -1.5767 C   0  0  0  0  0  0  0  0  0  0  0  0
    3.0050   -2.9768   -1.9935 C   0  0  0  0  0  0  0  0  0  0  0  0
    2.6766   -1.6861   -1.4460 O   0  0  0  0  0  0  0  0  0  0  0  0
    2.1729   -1.6306   -0.2297 C   0  0  0  0  0  0  0  0  0  0  0  0
    1.9662   -2.5896    0.4783 O   0  0  0  0  0  0  0  0  0  0  0  0
    1.8642   -0.2001    0.1785 C   0  0  0  0  0  0  0  0  0  0  0  0
    0.9887    0.4758   -0.8789 C   0  0  0  0  0  0  0  0  0  0  0  0
    1.5519    0.6081   -1.8050 H   0  0  0  0  0  0  0  0  0  0  0  0
    0.4765    1.8096   -0.3757 C   0  0  0  0  0  0  0  0  0  0  0  0
   -0.7114    2.0177   -0.2049 O   0  0  0  0  0  0  0  0  0  0  0  0
    1.4305    2.6596   -0.1478 O   0  0  0  0  0  0  0  0  0  0  0  0
    1.0905    3.9349    0.4467 C   0  0  0  0  0  0  0  0  0  0  0  0
    1.0153    3.8107    1.9593 C   0  0  0  0  0  0  0  0  0  0  0  0
   -0.4625   -0.5399   -1.3326 S   0  0  0  0  0  0  0  0  0  0  0  0
   -1.7580   -0.1530    0.2918 P   0  0  0  0  0  0  0  0  0  0  0  0
   -1.1977    0.3010    2.1269 S   0  0  0  0  0  0  0  0  0  0  0  0
   -3.0803    0.5889   -0.2128 O   0  0  0  0  0  0  0  0  0  0  0  0
   -3.4554    1.9358    0.0759 C   0  0  0  0  0  0  0  0  0  0  0  0
   -2.3012   -1.6652    0.2144 O   0  0  0  0  0  0  0  0  0  0  0  0
   -3.3095   -2.1424    1.1076 C   0  0  0  0  0  0  0  0  0  0  0  0
    4.6465   -4.3480   -2.0581 H   0  0  0  0  0  0  0  0  0  0  0  0
    5.1293   -2.6545   -1.8708 H   0  0  0  0  0  0  0  0  0  0  0  0
    4.4459   -3.5411   -0.4983 H   0  0  0  0  0  0  0  0  0  0  0  0
    2.2581   -3.6992   -1.6528 H   0  0  0  0  0  0  0  0  0  0  0  0
    2.9343   -2.8388   -3.0723 H   0  0  0  0  0  0  0  0  0  0  0  0
    2.7981    0.3560    0.2747 H   0  0  0  0  0  0  0  0  0  0  0  0
    1.3593   -0.2293    1.1467 H   0  0  0  0  0  0  0  0  0  0  0  0
    1.8983    4.5976    0.1379 H   0  0  0  0  0  0  0  0  0  0  0  0
    0.1361    4.2703    0.0343 H   0  0  0  0  0  0  0  0  0  0  0  0
    1.9697    3.4819    2.3600 H   0  0  0  0  0  0  0  0  0  0  0  0
    0.7612    4.7748    2.3866 H   0  0  0  0  0  0  0  0  0  0  0  0
    0.2522    3.0879    2.2439 H   0  0  0  0  0  0  0  0  0  0  0  0
   -3.0370    2.2445    1.0347 H   0  0  0  0  0  0  0  0  0  0  0  0
   -4.5426    1.9390    0.1136 H   0  0  0  0  0  0  0  0  0  0  0  0
   -3.0919    2.5909   -0.7127 H   0  0  0  0  0  0  0  0  0  0  0  0
   -4.2805   -1.7351    0.8272 H   0  0  0  0  0  0  0  0  0  0  0  0
   -3.0686   -1.8552    2.1337 H   0  0  0  0  0  0  0  0  0  0  0  0
   -3.3033   -3.2249    1.0079 H   0  0  0  0  0  0  0  0  0  0  0  0
  1  2  1  0  0  0  0
  2  3  1  0  0  0  0
  3  4  1  0  0  0  0
  4  5  2  0  0  0  0
  4  6  1  0  0  0  0
  6  7  1  0  0  0  0
  7  8  1  0  0  0  0
  7  9  1  0  0  0  0
  9 10  2  0  0  0  0
  9 11  4  0  0  0  0
 11 12  1  0  0  0  0
 12 13  1  0  0  0  0
  7 14  1  0  0  0  0
 14 15  1  0  0  0  0
 15 16  2  0  0  0  0
 15 17  2  0  0  0  0
 17 18  1  0  0  0  0
 15 19  1  0  0  0  0
 19 20  1  0  0  0  0
  1 21  1  0  0  0  0
  1 22  1  0  0  0  0
  1 23  1  0  0  0  0
  2 24  1  0  0  0  0
  2 25  1  0  0  0  0
  6 26  1  0  0  0  0
  6 27  1  0  0  0  0
 12 28  1  0  0  0  0
 12 29  1  0  0  0  0
 13 30  1  0  0  0  0
 13 31  1  0  0  0  0
 13 32  1  0  0  0  0
 18 33  1  0  0  0  0
 18 34  1  0  0  0  0
 18 35  1  0  0  0  0
 20 36  1  0  0  0  0
 20 37  1  0  0  0  0
 20 38  1  0  0  0  0
M  END
