 xtb: 6.7.1 (edcfbbe)
          04092507313D

 38 37  0     0  0            999 V2000
    3.2137   -1.5767    1.7596 C   0  0  0  0  0  0  0  0  0  0  0  0
    2.9005   -2.2089    0.4144 C   0  0  0  0  0  0  0  0  0  0  0  0
    2.6772   -1.1744   -0.5634 O   0  0  0  0  0  0  0  0  0  0  0  0
    1.5115   -1.0641   -1.1588 C   0  0  0  0  0  0  0  0  0  0  0  0
    0.5582   -1.7961   -0.9676 O   0  0  0  0  0  0  0  0  0  0  0  0
    1.4858    0.1060   -2.1194 C   0  0  0  0  0  0  0  0  0  0  0  0
    0.3434    1.0610   -1.7635 C   0  0  0  0  0  0  0  0  0  0  0  0
    0.3076    1.8742   -2.4935 H   0  0  0  0  0  0  0  0  0  0  0  0
    0.4938    1.6550   -0.3754 C   0  0  0  0  0  0  0  0  0  0  0  0
   -0.4357    1.6837    0.4138 O   0  0  0  0  0  0  0  0  0  0  0  0
    1.6920    2.0979   -0.1478 O   0  0  0  0  0  0  0  0  0  0  0  0
    2.0116    2.6884    1.1336 C   0  0  0  0  0  0  0  0  0  0  0  0
    2.7750    3.9775    0.8947 C   0  0  0  0  0  0  0  0  0  0  0  0
   -1.3059    0.2780   -1.8511 S   0  0  0  0  0  0  0  0  0  0  0  0
   -1.6271   -0.4619    0.1098 P   0  0  0  0  0  0  0  0  0  0  0  0
   -0.4732   -0.8978    1.6517 S   0  0  0  0  0  0  0  0  0  0  0  0
   -2.9413    0.3276    0.5967 O   0  0  0  0  0  0  0  0  0  0  0  0
   -2.9849    1.3270    1.6112 C   0  0  0  0  0  0  0  0  0  0  0  0
   -2.3510   -1.7624   -0.4835 O   0  0  0  0  0  0  0  0  0  0  0  0
   -2.9204   -2.7626    0.3614 C   0  0  0  0  0  0  0  0  0  0  0  0
    2.3384   -1.0502    2.1358 H   0  0  0  0  0  0  0  0  0  0  0  0
    3.4789   -2.3559    2.4660 H   0  0  0  0  0  0  0  0  0  0  0  0
    4.0424   -0.8819    1.6597 H   0  0  0  0  0  0  0  0  0  0  0  0
    2.0081   -2.8380    0.4728 H   0  0  0  0  0  0  0  0  0  0  0  0
    3.7474   -2.7890    0.0423 H   0  0  0  0  0  0  0  0  0  0  0  0
    1.3114   -0.2791   -3.1245 H   0  0  0  0  0  0  0  0  0  0  0  0
    2.4396    0.6302   -2.0703 H   0  0  0  0  0  0  0  0  0  0  0  0
    1.0847    2.8533    1.6882 H   0  0  0  0  0  0  0  0  0  0  0  0
    2.6233    1.9550    1.6650 H   0  0  0  0  0  0  0  0  0  0  0  0
    3.6642    3.7778    0.3049 H   0  0  0  0  0  0  0  0  0  0  0  0
    2.1539    4.6953    0.3666 H   0  0  0  0  0  0  0  0  0  0  0  0
    3.0670    4.3975    1.8514 H   0  0  0  0  0  0  0  0  0  0  0  0
   -3.9837    1.2747    2.0384 H   0  0  0  0  0  0  0  0  0  0  0  0
   -2.8008    2.3048    1.1701 H   0  0  0  0  0  0  0  0  0  0  0  0
   -2.2301    1.1200    2.3722 H   0  0  0  0  0  0  0  0  0  0  0  0
   -2.2238   -3.0203    1.1625 H   0  0  0  0  0  0  0  0  0  0  0  0
   -3.0955   -3.6235   -0.2788 H   0  0  0  0  0  0  0  0  0  0  0  0
   -3.8563   -2.4012    0.7886 H   0  0  0  0  0  0  0  0  0  0  0  0
  1  2  1  0  0  0  0
  2  3  1  0  0  0  0
  3  4  4  0  0  0  0
  4  5  2  0  0  0  0
  4  6  1  0  0  0  0
  6  7  1  0  0  0  0
  7  8  1  0  0  0  0
  7  9  1  0  0  0  0
  9 10  2  0  0  0  0
  9 11  4  0  0  0  0
 11 12  1  0  0  0  0
 12 13  1  0  0  0  0
  7 14  1  0  0  0  0
 14 15  1  0  0  0  0
 15 16  2  0  0  0  0
 15 17  1  0  0  0  0
 17 18  1  0  0  0  0
 15 19  1  0  0  0  0
 19 20  1  0  0  0  0
  1 21  1  0  0  0  0
  1 22  1  0  0  0  0
  1 23  1  0  0  0  0
  2 24  1  0  0  0  0
  2 25  1  0  0  0  0
  6 26  1  0  0  0  0
  6 27  1  0  0  0  0
 12 28  1  0  0  0  0
 12 29  1  0  0  0  0
 13 30  1  0  0  0  0
 13 31  1  0  0  0  0
 13 32  1  0  0  0  0
 18 33  1  0  0  0  0
 18 34  1  0  0  0  0
 18 35  1  0  0  0  0
 20 36  1  0  0  0  0
 20 37  1  0  0  0  0
 20 38  1  0  0  0  0
M  END
