 xtb: 6.7.1 (edcfbbe)
          04092505213D

 41 40  0     0  0            999 V2000
    4.3700   -0.1168   -2.3012 C   0  0  0  0  0  0  0  0  0  0  0  0
    4.5148    0.6237   -0.9875 C   0  0  0  0  0  0  0  0  0  0  0  0
    3.8086   -0.0260    0.0828 O   0  0  0  0  0  0  0  0  0  0  0  0
    2.2239   -0.1356    0.1251 P   0  0  0  0  0  0  0  0  0  0  0  0
    1.2781    1.4940   -0.4529 S   0  0  0  0  0  0  0  0  0  0  0  0
    1.9615   -0.5813    1.6211 O   0  0  0  0  0  0  0  0  0  0  0  0
    1.8122    0.3619    2.7001 C   0  0  0  0  0  0  0  0  0  0  0  0
    3.1479    0.9184    3.1481 C   0  0  0  0  0  0  0  0  0  0  0  0
    1.8100   -1.9564   -0.8404 S   0  0  0  0  0  0  0  0  0  0  0  0
    0.0542   -1.7011   -1.2041 C   0  0  0  0  0  0  0  0  0  0  0  0
   -0.9524   -1.4044    0.2809 S   0  0  0  0  0  0  0  0  0  0  0  0
   -2.0674    0.3132   -0.3546 P   0  0  0  0  0  0  0  0  0  0  0  0
   -1.8474    0.8452   -2.2213 S   0  0  0  0  0  0  0  0  0  0  0  0
   -1.7885    1.4631    0.6793 O   0  0  0  0  0  0  0  0  0  0  0  0
   -1.9522    1.3117    2.1124 C   0  0  0  0  0  0  0  0  0  0  0  0
   -3.3261    1.7674    2.5580 C   0  0  0  0  0  0  0  0  0  0  0  0
   -3.5525   -0.1142    0.0306 O   0  0  0  0  0  0  0  0  0  0  0  0
   -4.2480   -1.1293   -0.7191 C   0  0  0  0  0  0  0  0  0  0  0  0
   -5.7136   -1.0667   -0.3392 C   0  0  0  0  0  0  0  0  0  0  0  0
    4.6384   -1.1629   -2.1773 H   0  0  0  0  0  0  0  0  0  0  0  0
    3.3393   -0.0579   -2.6501 H   0  0  0  0  0  0  0  0  0  0  0  0
    5.0173    0.3381   -3.0442 H   0  0  0  0  0  0  0  0  0  0  0  0
    4.1357    1.6468   -1.0802 H   0  0  0  0  0  0  0  0  0  0  0  0
    5.5504    0.6393   -0.6453 H   0  0  0  0  0  0  0  0  0  0  0  0
    1.1498    1.1676    2.3648 H   0  0  0  0  0  0  0  0  0  0  0  0
    1.3281   -0.2150    3.4895 H   0  0  0  0  0  0  0  0  0  0  0  0
    3.5809    1.5313    2.3595 H   0  0  0  0  0  0  0  0  0  0  0  0
    3.0028    1.5298    4.0333 H   0  0  0  0  0  0  0  0  0  0  0  0
    3.8320    0.1058    3.3762 H   0  0  0  0  0  0  0  0  0  0  0  0
   -0.2828   -2.6213   -1.6748 H   0  0  0  0  0  0  0  0  0  0  0  0
   -0.0737   -0.8474   -1.8766 H   0  0  0  0  0  0  0  0  0  0  0  0
   -1.7706    0.2665    2.3799 H   0  0  0  0  0  0  0  0  0  0  0  0
   -1.1705    1.9447    2.5379 H   0  0  0  0  0  0  0  0  0  0  0  0
   -4.0944    1.1328    2.1261 H   0  0  0  0  0  0  0  0  0  0  0  0
   -3.3800    1.7137    3.6409 H   0  0  0  0  0  0  0  0  0  0  0  0
   -3.4974    2.7920    2.2394 H   0  0  0  0  0  0  0  0  0  0  0  0
   -4.1003   -0.9348   -1.7865 H   0  0  0  0  0  0  0  0  0  0  0  0
   -3.8106   -2.0994   -0.4665 H   0  0  0  0  0  0  0  0  0  0  0  0
   -6.1185   -0.0872   -0.5775 H   0  0  0  0  0  0  0  0  0  0  0  0
   -6.2571   -1.8233   -0.8954 H   0  0  0  0  0  0  0  0  0  0  0  0
   -5.8315   -1.2492    0.7250 H   0  0  0  0  0  0  0  0  0  0  0  0
  1  2  1  0  0  0  0
  2  3  1  0  0  0  0
  3  4  2  0  0  0  0
  4  5  2  0  0  0  0
  4  6  2  0  0  0  0
  6  7  1  0  0  0  0
  7  8  1  0  0  0  0
  4  9  1  0  0  0  0
  9 10  1  0  0  0  0
 10 11  1  0  0  0  0
 11 12  1  0  0  0  0
 12 13  2  0  0  0  0
 12 14  2  0  0  0  0
 14 15  1  0  0  0  0
 15 16  1  0  0  0  0
 12 17  2  0  0  0  0
 17 18  1  0  0  0  0
 18 19  1  0  0  0  0
  1 20  1  0  0  0  0
  1 21  1  0  0  0  0
  1 22  1  0  0  0  0
  2 23  1  0  0  0  0
  2 24  1  0  0  0  0
  7 25  1  0  0  0  0
  7 26  1  0  0  0  0
  8 27  1  0  0  0  0
  8 28  1  0  0  0  0
  8 29  1  0  0  0  0
 10 30  1  0  0  0  0
 10 31  1  0  0  0  0
 15 32  1  0  0  0  0
 15 33  1  0  0  0  0
 16 34  1  0  0  0  0
 16 35  1  0  0  0  0
 16 36  1  0  0  0  0
 18 37  1  0  0  0  0
 18 38  1  0  0  0  0
 19 39  1  0  0  0  0
 19 40  1  0  0  0  0
 19 41  1  0  0  0  0
M  END
