 xtb: 6.7.1 (edcfbbe)
          04092505213D

 41 40  0     0  0            999 V2000
    4.2365    0.0493   -2.1819 C   0  0  0  0  0  0  0  0  0  0  0  0
    4.4083   -0.3459   -0.7287 C   0  0  0  0  0  0  0  0  0  0  0  0
    3.1505   -0.6257   -0.0933 O   0  0  0  0  0  0  0  0  0  0  0  0
    2.1126    0.5330    0.2683 P   0  0  0  0  0  0  0  0  0  0  0  0
    2.9124    2.2260    0.8396 S   0  0  0  0  0  0  0  0  0  0  0  0
    1.1795   -0.1870    1.3255 O   0  0  0  0  0  0  0  0  0  0  0  0
    1.4438   -0.1444    2.7406 C   0  0  0  0  0  0  0  0  0  0  0  0
    2.6568   -0.9712    3.1111 C   0  0  0  0  0  0  0  0  0  0  0  0
    0.7861    0.6307   -1.3732 S   0  0  0  0  0  0  0  0  0  0  0  0
    0.4145   -1.1290   -1.6074 C   0  0  0  0  0  0  0  0  0  0  0  0
   -0.6336   -1.8621   -0.3114 S   0  0  0  0  0  0  0  0  0  0  0  0
   -2.1408   -0.4051   -0.2746 P   0  0  0  0  0  0  0  0  0  0  0  0
   -2.7143    0.3697   -1.9872 S   0  0  0  0  0  0  0  0  0  0  0  0
   -1.6013    0.5880    0.8368 O   0  0  0  0  0  0  0  0  0  0  0  0
   -2.1976    1.8865    1.0574 C   0  0  0  0  0  0  0  0  0  0  0  0
   -1.3542    2.9757    0.4247 C   0  0  0  0  0  0  0  0  0  0  0  0
   -3.3171   -1.1232    0.5219 O   0  0  0  0  0  0  0  0  0  0  0  0
   -4.2311   -2.0340   -0.1232 C   0  0  0  0  0  0  0  0  0  0  0  0
   -5.4765   -2.1341    0.7343 C   0  0  0  0  0  0  0  0  0  0  0  0
    3.7066   -0.7240   -2.7320 H   0  0  0  0  0  0  0  0  0  0  0  0
    3.6721    0.9791   -2.2497 H   0  0  0  0  0  0  0  0  0  0  0  0
    5.2137    0.1992   -2.6296 H   0  0  0  0  0  0  0  0  0  0  0  0
    4.9058    0.4554   -0.1729 H   0  0  0  0  0  0  0  0  0  0  0  0
    4.9704   -1.2750   -0.6256 H   0  0  0  0  0  0  0  0  0  0  0  0
    1.5811    0.9011    3.0358 H   0  0  0  0  0  0  0  0  0  0  0  0
    0.5294   -0.5394    3.1862 H   0  0  0  0  0  0  0  0  0  0  0  0
    2.7514   -1.0050    4.1920 H   0  0  0  0  0  0  0  0  0  0  0  0
    2.5535   -1.9814    2.7236 H   0  0  0  0  0  0  0  0  0  0  0  0
    3.5545   -0.5199    2.6911 H   0  0  0  0  0  0  0  0  0  0  0  0
    1.3331   -1.7104   -1.6179 H   0  0  0  0  0  0  0  0  0  0  0  0
   -0.1053   -1.1832   -2.5627 H   0  0  0  0  0  0  0  0  0  0  0  0
   -3.2109    1.8922    0.6462 H   0  0  0  0  0  0  0  0  0  0  0  0
   -2.2402    1.9934    2.1425 H   0  0  0  0  0  0  0  0  0  0  0  0
   -1.7693    3.9454    0.6794 H   0  0  0  0  0  0  0  0  0  0  0  0
   -0.3292    2.9210    0.7871 H   0  0  0  0  0  0  0  0  0  0  0  0
   -1.3435    2.8654   -0.6581 H   0  0  0  0  0  0  0  0  0  0  0  0
   -4.4598   -1.6473   -1.1221 H   0  0  0  0  0  0  0  0  0  0  0  0
   -3.7329   -3.0021   -0.2181 H   0  0  0  0  0  0  0  0  0  0  0  0
   -5.2130   -2.4759    1.7310 H   0  0  0  0  0  0  0  0  0  0  0  0
   -5.9589   -1.1637    0.8109 H   0  0  0  0  0  0  0  0  0  0  0  0
   -6.1638   -2.8405    0.2807 H   0  0  0  0  0  0  0  0  0  0  0  0
  1  2  1  0  0  0  0
  2  3  1  0  0  0  0
  3  4  2  0  0  0  0
  4  5  2  0  0  0  0
  4  6  2  0  0  0  0
  6  7  1  0  0  0  0
  7  8  1  0  0  0  0
  4  9  1  0  0  0  0
  9 10  1  0  0  0  0
 10 11  1  0  0  0  0
 11 12  1  0  0  0  0
 12 13  2  0  0  0  0
 12 14  2  0  0  0  0
 14 15  1  0  0  0  0
 15 16  1  0  0  0  0
 12 17  2  0  0  0  0
 17 18  1  0  0  0  0
 18 19  1  0  0  0  0
  1 20  1  0  0  0  0
  1 21  1  0  0  0  0
  1 22  1  0  0  0  0
  2 23  1  0  0  0  0
  2 24  1  0  0  0  0
  7 25  1  0  0  0  0
  7 26  1  0  0  0  0
  8 27  1  0  0  0  0
  8 28  1  0  0  0  0
  8 29  1  0  0  0  0
 10 30  1  0  0  0  0
 10 31  1  0  0  0  0
 15 32  1  0  0  0  0
 15 33  1  0  0  0  0
 16 34  1  0  0  0  0
 16 35  1  0  0  0  0
 16 36  1  0  0  0  0
 18 37  1  0  0  0  0
 18 38  1  0  0  0  0
 19 39  1  0  0  0  0
 19 40  1  0  0  0  0
 19 41  1  0  0  0  0
M  END
