 xtb: 6.7.1 (edcfbbe)
          04032519423D

 20 20  0     0  0            999 V2000
    0.6015    1.7000    0.0459 C   0  0  0  0  0  0  0  0  0  0  0  0
    1.4018    0.4189   -0.2371 C   0  0  0  0  0  0  0  0  0  0  0  0
    1.6044    0.3615   -1.3138 H   0  0  0  0  0  0  0  0  0  0  0  0
    0.5549   -0.7979    0.1823 C   0  0  0  0  0  0  0  0  0  0  0  0
    0.3635   -0.7622    1.2609 H   0  0  0  0  0  0  0  0  0  0  0  0
   -0.8008   -0.7452   -0.5493 C   0  0  0  0  0  0  0  0  0  0  0  0
   -0.6299   -0.8713   -1.6248 H   0  0  0  0  0  0  0  0  0  0  0  0
   -1.4673    0.6333   -0.3064 C   0  0  0  0  0  0  0  0  0  0  0  0
   -2.3438    0.7509   -0.9647 H   0  0  0  0  0  0  0  0  0  0  0  0
   -0.6293    1.6893   -0.6638 O   0  0  0  0  0  0  0  0  0  0  0  0
   -1.8594    0.7440    1.0323 O   0  0  0  0  0  0  0  0  0  0  0  0
   -1.6287   -1.7562   -0.0242 O   0  0  0  0  0  0  0  0  0  0  0  0
    1.2219   -2.0153   -0.0189 O   0  0  0  0  0  0  0  0  0  0  0  0
    2.6643    0.4315    0.3727 O   0  0  0  0  0  0  0  0  0  0  0  0
    1.1380    2.5776   -0.3135 H   0  0  0  0  0  0  0  0  0  0  0  0
    0.4078    1.7978    1.1207 H   0  0  0  0  0  0  0  0  0  0  0  0
   -2.1259   -0.1418    1.3362 H   0  0  0  0  0  0  0  0  0  0  0  0
   -2.2804   -2.0409   -0.6794 H   0  0  0  0  0  0  0  0  0  0  0  0
    1.5112   -2.0887   -0.9397 H   0  0  0  0  0  0  0  0  0  0  0  0
    2.5677    0.4000    1.3354 H   0  0  0  0  0  0  0  0  0  0  0  0
  1  2  1  0  0  0  0
  2  3  1  0  0  0  0
  2  4  1  0  0  0  0
  4  5  1  0  0  0  0
  4  6  1  0  0  0  0
  6  7  1  0  0  0  0
  6  8  1  0  0  0  0
  8  9  1  0  0  0  0
  1 10  1  0  0  0  0
  8 10  1  0  0  0  0
  8 11  1  0  0  0  0
  6 12  1  0  0  0  0
  4 13  1  0  0  0  0
  2 14  1  0  0  0  0
  1 15  1  0  0  0  0
  1 16  1  0  0  0  0
 11 17  1  0  0  0  0
 12 18  1  0  0  0  0
 13 19  1  0  0  0  0
 14 20  1  0  0  0  0
M  END
