 xtb: 6.7.1 (edcfbbe)
          04092505203D

 41 40  0     0  0            999 V2000
    3.7736   -0.6224   -2.7424 C   0  0  0  0  0  0  0  0  0  0  0  0
    4.1335    0.4982   -1.7891 C   0  0  0  0  0  0  0  0  0  0  0  0
    3.6528    0.2544   -0.4547 O   0  0  0  0  0  0  0  0  0  0  0  0
    2.1024    0.1951   -0.1054 P   0  0  0  0  0  0  0  0  0  0  0  0
    1.0153    1.5340   -1.0206 S   0  0  0  0  0  0  0  0  0  0  0  0
    2.0682    0.3906    1.4569 O   0  0  0  0  0  0  0  0  0  0  0  0
    2.8145   -0.4027    2.4106 C   0  0  0  0  0  0  0  0  0  0  0  0
    4.1401    0.2523    2.7397 C   0  0  0  0  0  0  0  0  0  0  0  0
    1.6574   -1.8685   -0.4075 S   0  0  0  0  0  0  0  0  0  0  0  0
   -0.0338   -1.9101    0.2301 C   0  0  0  0  0  0  0  0  0  0  0  0
   -1.2576   -1.2123   -0.9231 S   0  0  0  0  0  0  0  0  0  0  0  0
   -2.3008    0.0522    0.4412 P   0  0  0  0  0  0  0  0  0  0  0  0
   -1.2223    0.6821    1.9540 S   0  0  0  0  0  0  0  0  0  0  0  0
   -3.5109   -0.7778    1.0217 O   0  0  0  0  0  0  0  0  0  0  0  0
   -4.7590   -1.0685    0.3469 C   0  0  0  0  0  0  0  0  0  0  0  0
   -4.5757   -1.9295   -0.8851 C   0  0  0  0  0  0  0  0  0  0  0  0
   -3.0591    1.0895   -0.4853 O   0  0  0  0  0  0  0  0  0  0  0  0
   -2.4706    2.1170   -1.3020 C   0  0  0  0  0  0  0  0  0  0  0  0
   -2.1432    3.3513   -0.4870 C   0  0  0  0  0  0  0  0  0  0  0  0
    4.0900   -1.5809   -2.3383 H   0  0  0  0  0  0  0  0  0  0  0  0
    2.6959   -0.6458   -2.8987 H   0  0  0  0  0  0  0  0  0  0  0  0
    4.2626   -0.4523   -3.6961 H   0  0  0  0  0  0  0  0  0  0  0  0
    3.7159    1.4482   -2.1366 H   0  0  0  0  0  0  0  0  0  0  0  0
    5.2131    0.5906   -1.6631 H   0  0  0  0  0  0  0  0  0  0  0  0
    2.1622   -0.4477    3.2856 H   0  0  0  0  0  0  0  0  0  0  0  0
    2.9615   -1.4064    2.0013 H   0  0  0  0  0  0  0  0  0  0  0  0
    3.9752    1.2674    3.0910 H   0  0  0  0  0  0  0  0  0  0  0  0
    4.6334   -0.3211    3.5184 H   0  0  0  0  0  0  0  0  0  0  0  0
    4.7746    0.2833    1.8581 H   0  0  0  0  0  0  0  0  0  0  0  0
   -0.0917   -1.3442    1.1649 H   0  0  0  0  0  0  0  0  0  0  0  0
   -0.2644   -2.9609    0.3836 H   0  0  0  0  0  0  0  0  0  0  0  0
   -5.3376   -1.5849    1.1146 H   0  0  0  0  0  0  0  0  0  0  0  0
   -5.2383   -0.1211    0.0947 H   0  0  0  0  0  0  0  0  0  0  0  0
   -5.5529   -2.1851   -1.2831 H   0  0  0  0  0  0  0  0  0  0  0  0
   -4.0133   -1.3923   -1.6462 H   0  0  0  0  0  0  0  0  0  0  0  0
   -4.0415   -2.8426   -0.6359 H   0  0  0  0  0  0  0  0  0  0  0  0
   -1.5735    1.7299   -1.7911 H   0  0  0  0  0  0  0  0  0  0  0  0
   -3.2377    2.3272   -2.0498 H   0  0  0  0  0  0  0  0  0  0  0  0
   -3.0251    3.7012    0.0432 H   0  0  0  0  0  0  0  0  0  0  0  0
   -1.3625    3.1260    0.2370 H   0  0  0  0  0  0  0  0  0  0  0  0
   -1.7823    4.1300   -1.1509 H   0  0  0  0  0  0  0  0  0  0  0  0
  1  2  1  0  0  0  0
  2  3  1  0  0  0  0
  3  4  2  0  0  0  0
  4  5  2  0  0  0  0
  4  6  2  0  0  0  0
  6  7  1  0  0  0  0
  7  8  1  0  0  0  0
  4  9  1  0  0  0  0
  9 10  1  0  0  0  0
 10 11  1  0  0  0  0
 11 12  1  0  0  0  0
 12 13  2  0  0  0  0
 12 14  2  0  0  0  0
 14 15  1  0  0  0  0
 15 16  1  0  0  0  0
 12 17  2  0  0  0  0
 17 18  1  0  0  0  0
 18 19  1  0  0  0  0
  1 20  1  0  0  0  0
  1 21  1  0  0  0  0
  1 22  1  0  0  0  0
  2 23  1  0  0  0  0
  2 24  1  0  0  0  0
  7 25  1  0  0  0  0
  7 26  1  0  0  0  0
  8 27  1  0  0  0  0
  8 28  1  0  0  0  0
  8 29  1  0  0  0  0
 10 30  1  0  0  0  0
 10 31  1  0  0  0  0
 15 32  1  0  0  0  0
 15 33  1  0  0  0  0
 16 34  1  0  0  0  0
 16 35  1  0  0  0  0
 16 36  1  0  0  0  0
 18 37  1  0  0  0  0
 18 38  1  0  0  0  0
 19 39  1  0  0  0  0
 19 40  1  0  0  0  0
 19 41  1  0  0  0  0
M  END
