 xtb: 6.7.1 (edcfbbe)
          04092507313D

 38 37  0     0  0            999 V2000
    4.4089   -3.0891   -2.2403 C   0  0  0  0  0  0  0  0  0  0  0  0
    3.0987   -3.1793   -1.4832 C   0  0  0  0  0  0  0  0  0  0  0  0
    2.8564   -1.9044   -0.8562 O   0  0  0  0  0  0  0  0  0  0  0  0
    1.9005   -1.8283    0.0421 C   0  0  0  0  0  0  0  0  0  0  0  0
    1.2178   -2.7639    0.3987 O   0  0  0  0  0  0  0  0  0  0  0  0
    1.7260   -0.4090    0.5505 C   0  0  0  0  0  0  0  0  0  0  0  0
    1.0352    0.4176   -0.5402 C   0  0  0  0  0  0  0  0  0  0  0  0
    1.7169    0.5709   -1.3802 H   0  0  0  0  0  0  0  0  0  0  0  0
    0.5703    1.7584   -0.0026 C   0  0  0  0  0  0  0  0  0  0  0  0
   -0.6018    2.0809    0.0116 O   0  0  0  0  0  0  0  0  0  0  0  0
    1.5587    2.4745    0.4460 O   0  0  0  0  0  0  0  0  0  0  0  0
    1.2682    3.7683    1.0230 C   0  0  0  0  0  0  0  0  0  0  0  0
    1.1697    4.8331   -0.0562 C   0  0  0  0  0  0  0  0  0  0  0  0
   -0.4162   -0.4305   -1.2577 S   0  0  0  0  0  0  0  0  0  0  0  0
   -1.8896   -0.1111    0.2370 P   0  0  0  0  0  0  0  0  0  0  0  0
   -1.4385    0.1765    2.1327 S   0  0  0  0  0  0  0  0  0  0  0  0
   -3.0316    0.7856   -0.3979 O   0  0  0  0  0  0  0  0  0  0  0  0
   -3.4081    2.0895    0.0508 C   0  0  0  0  0  0  0  0  0  0  0  0
   -2.7037   -1.4806    0.0412 O   0  0  0  0  0  0  0  0  0  0  0  0
   -2.1980   -2.7139    0.5566 C   0  0  0  0  0  0  0  0  0  0  0  0
    4.3508   -2.3075   -2.9914 H   0  0  0  0  0  0  0  0  0  0  0  0
    5.2209   -2.8606   -1.5566 H   0  0  0  0  0  0  0  0  0  0  0  0
    4.6074   -4.0384   -2.7263 H   0  0  0  0  0  0  0  0  0  0  0  0
    3.1254   -3.9484   -0.7050 H   0  0  0  0  0  0  0  0  0  0  0  0
    2.2579   -3.3917   -2.1506 H   0  0  0  0  0  0  0  0  0  0  0  0
    2.6977    0.0340    0.7660 H   0  0  0  0  0  0  0  0  0  0  0  0
    1.1158   -0.4379    1.4553 H   0  0  0  0  0  0  0  0  0  0  0  0
    0.3370    3.6937    1.5908 H   0  0  0  0  0  0  0  0  0  0  0  0
    2.1079    3.9536    1.6922 H   0  0  0  0  0  0  0  0  0  0  0  0
    0.3335    4.6229   -0.7190 H   0  0  0  0  0  0  0  0  0  0  0  0
    1.0122    5.7995    0.4109 H   0  0  0  0  0  0  0  0  0  0  0  0
    2.0860    4.8621   -0.6389 H   0  0  0  0  0  0  0  0  0  0  0  0
   -2.9405    2.8360   -0.5882 H   0  0  0  0  0  0  0  0  0  0  0  0
   -3.0946    2.2417    1.0849 H   0  0  0  0  0  0  0  0  0  0  0  0
   -4.4922    2.1326   -0.0280 H   0  0  0  0  0  0  0  0  0  0  0  0
   -2.1729   -2.6766    1.6470 H   0  0  0  0  0  0  0  0  0  0  0  0
   -1.1913   -2.9159    0.1850 H   0  0  0  0  0  0  0  0  0  0  0  0
   -2.8899   -3.4793    0.2160 H   0  0  0  0  0  0  0  0  0  0  0  0
  1  2  1  0  0  0  0
  2  3  1  0  0  0  0
  3  4  4  0  0  0  0
  4  5  2  0  0  0  0
  4  6  1  0  0  0  0
  6  7  1  0  0  0  0
  7  8  1  0  0  0  0
  7  9  1  0  0  0  0
  9 10  2  0  0  0  0
  9 11  4  0  0  0  0
 11 12  1  0  0  0  0
 12 13  1  0  0  0  0
  7 14  1  0  0  0  0
 14 15  1  0  0  0  0
 15 16  2  0  0  0  0
 15 17  2  0  0  0  0
 17 18  1  0  0  0  0
 15 19  1  0  0  0  0
 19 20  1  0  0  0  0
  1 21  1  0  0  0  0
  1 22  1  0  0  0  0
  1 23  1  0  0  0  0
  2 24  1  0  0  0  0
  2 25  1  0  0  0  0
  6 26  1  0  0  0  0
  6 27  1  0  0  0  0
 12 28  1  0  0  0  0
 12 29  1  0  0  0  0
 13 30  1  0  0  0  0
 13 31  1  0  0  0  0
 13 32  1  0  0  0  0
 18 33  1  0  0  0  0
 18 34  1  0  0  0  0
 18 35  1  0  0  0  0
 20 36  1  0  0  0  0
 20 37  1  0  0  0  0
 20 38  1  0  0  0  0
M  END
