 xtb: 6.7.1 (edcfbbe)
          04092505213D

 41 40  0     0  0            999 V2000
    1.6761    0.8501    3.4479 C   0  0  0  0  0  0  0  0  0  0  0  0
    0.9895    1.1328    2.1255 C   0  0  0  0  0  0  0  0  0  0  0  0
    1.8513    0.7937    1.0271 O   0  0  0  0  0  0  0  0  0  0  0  0
    1.8052   -0.5871    0.2333 P   0  0  0  0  0  0  0  0  0  0  0  0
    0.9474   -2.0735    1.1863 S   0  0  0  0  0  0  0  0  0  0  0  0
    3.3286   -0.8188   -0.1464 O   0  0  0  0  0  0  0  0  0  0  0  0
    4.2968   -1.3095    0.8028 C   0  0  0  0  0  0  0  0  0  0  0  0
    5.0499   -0.1698    1.4592 C   0  0  0  0  0  0  0  0  0  0  0  0
    1.1931   -0.1665   -1.7416 S   0  0  0  0  0  0  0  0  0  0  0  0
   -0.2109   -1.3170   -1.8929 C   0  0  0  0  0  0  0  0  0  0  0  0
   -1.8003   -0.5177   -2.2703 S   0  0  0  0  0  0  0  0  0  0  0  0
   -2.1260    0.5611   -0.4712 P   0  0  0  0  0  0  0  0  0  0  0  0
   -3.8858    1.4013   -0.3212 S   0  0  0  0  0  0  0  0  0  0  0  0
   -0.8843    1.5501   -0.3567 O   0  0  0  0  0  0  0  0  0  0  0  0
   -0.7822    2.6594   -1.2750 C   0  0  0  0  0  0  0  0  0  0  0  0
    0.3218    3.5736   -0.7857 C   0  0  0  0  0  0  0  0  0  0  0  0
   -1.6917   -0.3926    0.7196 O   0  0  0  0  0  0  0  0  0  0  0  0
   -2.6567   -1.2099    1.4091 C   0  0  0  0  0  0  0  0  0  0  0  0
   -3.0942   -2.3954    0.5733 C   0  0  0  0  0  0  0  0  0  0  0  0
    1.8946   -0.2127    3.5356 H   0  0  0  0  0  0  0  0  0  0  0  0
    2.6022    1.4134    3.5230 H   0  0  0  0  0  0  0  0  0  0  0  0
    1.0164    1.1408    4.2593 H   0  0  0  0  0  0  0  0  0  0  0  0
    0.7757    2.1953    2.0028 H   0  0  0  0  0  0  0  0  0  0  0  0
    0.0588    0.5673    2.0458 H   0  0  0  0  0  0  0  0  0  0  0  0
    3.7824   -1.9308    1.5440 H   0  0  0  0  0  0  0  0  0  0  0  0
    4.9667   -1.9364    0.2111 H   0  0  0  0  0  0  0  0  0  0  0  0
    5.8041   -0.5779    2.1249 H   0  0  0  0  0  0  0  0  0  0  0  0
    5.5313    0.4402    0.7000 H   0  0  0  0  0  0  0  0  0  0  0  0
    4.3695    0.4564    2.0299 H   0  0  0  0  0  0  0  0  0  0  0  0
   -0.2914   -1.8903   -0.9663 H   0  0  0  0  0  0  0  0  0  0  0  0
   -0.0228   -1.9684   -2.7424 H   0  0  0  0  0  0  0  0  0  0  0  0
   -0.5532    2.2646   -2.2703 H   0  0  0  0  0  0  0  0  0  0  0  0
   -1.7487    3.1733   -1.3064 H   0  0  0  0  0  0  0  0  0  0  0  0
    0.4525    4.3821   -1.4973 H   0  0  0  0  0  0  0  0  0  0  0  0
    0.0646    3.9883    0.1848 H   0  0  0  0  0  0  0  0  0  0  0  0
    1.2516    3.0160   -0.7022 H   0  0  0  0  0  0  0  0  0  0  0  0
   -2.1330   -1.5313    2.3111 H   0  0  0  0  0  0  0  0  0  0  0  0
   -3.5138   -0.5825    1.6731 H   0  0  0  0  0  0  0  0  0  0  0  0
   -3.7927   -2.9958    1.1471 H   0  0  0  0  0  0  0  0  0  0  0  0
   -3.5868   -2.0509   -0.3355 H   0  0  0  0  0  0  0  0  0  0  0  0
   -2.2359   -3.0084    0.3081 H   0  0  0  0  0  0  0  0  0  0  0  0
  1  2  1  0  0  0  0
  2  3  1  0  0  0  0
  3  4  2  0  0  0  0
  4  5  2  0  0  0  0
  4  6  2  0  0  0  0
  6  7  1  0  0  0  0
  7  8  1  0  0  0  0
  4  9  1  0  0  0  0
  9 10  1  0  0  0  0
 10 11  1  0  0  0  0
 11 12  1  0  0  0  0
 12 13  2  0  0  0  0
 12 14  1  0  0  0  0
 14 15  1  0  0  0  0
 15 16  1  0  0  0  0
 12 17  2  0  0  0  0
 17 18  1  0  0  0  0
 18 19  1  0  0  0  0
  1 20  1  0  0  0  0
  1 21  1  0  0  0  0
  1 22  1  0  0  0  0
  2 23  1  0  0  0  0
  2 24  1  0  0  0  0
  7 25  1  0  0  0  0
  7 26  1  0  0  0  0
  8 27  1  0  0  0  0
  8 28  1  0  0  0  0
  8 29  1  0  0  0  0
 10 30  1  0  0  0  0
 10 31  1  0  0  0  0
 15 32  1  0  0  0  0
 15 33  1  0  0  0  0
 16 34  1  0  0  0  0
 16 35  1  0  0  0  0
 16 36  1  0  0  0  0
 18 37  1  0  0  0  0
 18 38  1  0  0  0  0
 19 39  1  0  0  0  0
 19 40  1  0  0  0  0
 19 41  1  0  0  0  0
M  END
