 xtb: 6.7.1 (edcfbbe)
          04092507313D

 38 37  0     0  0            999 V2000
    2.3395   -3.3389   -2.6529 C   0  0  0  0  0  0  0  0  0  0  0  0
    3.2773   -3.0439   -1.4929 C   0  0  0  0  0  0  0  0  0  0  0  0
    3.0241   -1.7264   -0.9685 O   0  0  0  0  0  0  0  0  0  0  0  0
    2.1480   -1.5939    0.0042 C   0  0  0  0  0  0  0  0  0  0  0  0
    1.5833   -2.5095    0.5607 O   0  0  0  0  0  0  0  0  0  0  0  0
    1.8995   -0.1310    0.3245 C   0  0  0  0  0  0  0  0  0  0  0  0
    1.0456    0.4671   -0.7997 C   0  0  0  0  0  0  0  0  0  0  0  0
    1.6373    0.5482   -1.7146 H   0  0  0  0  0  0  0  0  0  0  0  0
    0.5045    1.8304   -0.4119 C   0  0  0  0  0  0  0  0  0  0  0  0
   -0.6882    2.0600   -0.3490 O   0  0  0  0  0  0  0  0  0  0  0  0
    1.4544    2.6828   -0.1637 O   0  0  0  0  0  0  0  0  0  0  0  0
    1.0929    3.9937    0.3289 C   0  0  0  0  0  0  0  0  0  0  0  0
    0.9536    3.9676    1.8419 C   0  0  0  0  0  0  0  0  0  0  0  0
   -0.3757   -0.5926   -1.2452 S   0  0  0  0  0  0  0  0  0  0  0  0
   -1.7457   -0.1593    0.3181 P   0  0  0  0  0  0  0  0  0  0  0  0
   -1.1743    0.4644    2.0967 S   0  0  0  0  0  0  0  0  0  0  0  0
   -3.0147    0.5285   -0.3359 O   0  0  0  0  0  0  0  0  0  0  0  0
   -3.4697    1.8572   -0.0701 C   0  0  0  0  0  0  0  0  0  0  0  0
   -2.4404   -1.6031    0.4113 O   0  0  0  0  0  0  0  0  0  0  0  0
   -1.7829   -2.6927    1.0622 C   0  0  0  0  0  0  0  0  0  0  0  0
    2.5498   -4.3289   -3.0433 H   0  0  0  0  0  0  0  0  0  0  0  0
    1.3053   -3.3010   -2.3168 H   0  0  0  0  0  0  0  0  0  0  0  0
    2.4747   -2.6051   -3.4420 H   0  0  0  0  0  0  0  0  0  0  0  0
    4.3178   -3.0197   -1.8171 H   0  0  0  0  0  0  0  0  0  0  0  0
    3.1442   -3.7721   -0.6881 H   0  0  0  0  0  0  0  0  0  0  0  0
    2.8443    0.4087    0.3760 H   0  0  0  0  0  0  0  0  0  0  0  0
    1.3761   -0.0687    1.2805 H   0  0  0  0  0  0  0  0  0  0  0  0
    1.9140    4.6364    0.0125 H   0  0  0  0  0  0  0  0  0  0  0  0
    0.1574    4.3007   -0.1449 H   0  0  0  0  0  0  0  0  0  0  0  0
    0.6806    4.9562    2.1951 H   0  0  0  0  0  0  0  0  0  0  0  0
    0.1799    3.2612    2.1391 H   0  0  0  0  0  0  0  0  0  0  0  0
    1.8904    3.6682    2.3026 H   0  0  0  0  0  0  0  0  0  0  0  0
   -3.1219    2.5191   -0.8608 H   0  0  0  0  0  0  0  0  0  0  0  0
   -3.0918    2.2040    0.8929 H   0  0  0  0  0  0  0  0  0  0  0  0
   -4.5562    1.8044   -0.0556 H   0  0  0  0  0  0  0  0  0  0  0  0
   -1.6946   -2.4862    2.1301 H   0  0  0  0  0  0  0  0  0  0  0  0
   -0.7858   -2.8585    0.6492 H   0  0  0  0  0  0  0  0  0  0  0  0
   -2.4143   -3.5601    0.8916 H   0  0  0  0  0  0  0  0  0  0  0  0
  1  2  1  0  0  0  0
  2  3  1  0  0  0  0
  3  4  1  0  0  0  0
  4  5  2  0  0  0  0
  4  6  1  0  0  0  0
  6  7  1  0  0  0  0
  7  8  1  0  0  0  0
  7  9  1  0  0  0  0
  9 10  2  0  0  0  0
  9 11  4  0  0  0  0
 11 12  1  0  0  0  0
 12 13  1  0  0  0  0
  7 14  1  0  0  0  0
 14 15  1  0  0  0  0
 15 16  2  0  0  0  0
 15 17  2  0  0  0  0
 17 18  1  0  0  0  0
 15 19  1  0  0  0  0
 19 20  1  0  0  0  0
  1 21  1  0  0  0  0
  1 22  1  0  0  0  0
  1 23  1  0  0  0  0
  2 24  1  0  0  0  0
  2 25  1  0  0  0  0
  6 26  1  0  0  0  0
  6 27  1  0  0  0  0
 12 28  1  0  0  0  0
 12 29  1  0  0  0  0
 13 30  1  0  0  0  0
 13 31  1  0  0  0  0
 13 32  1  0  0  0  0
 18 33  1  0  0  0  0
 18 34  1  0  0  0  0
 18 35  1  0  0  0  0
 20 36  1  0  0  0  0
 20 37  1  0  0  0  0
 20 38  1  0  0  0  0
M  END
