 xtb: 6.7.1 (edcfbbe)
          04092507313D

 38 37  0     0  0            999 V2000
    5.3836   -1.9583   -1.2192 C   0  0  0  0  0  0  0  0  0  0  0  0
    4.6088   -0.6682   -1.0026 C   0  0  0  0  0  0  0  0  0  0  0  0
    3.1905   -0.8901   -1.1235 O   0  0  0  0  0  0  0  0  0  0  0  0
    2.5262   -1.2886   -0.0552 C   0  0  0  0  0  0  0  0  0  0  0  0
    3.0217   -1.4820    1.0308 O   0  0  0  0  0  0  0  0  0  0  0  0
    1.0521   -1.4906   -0.3617 C   0  0  0  0  0  0  0  0  0  0  0  0
    0.4591   -0.2475   -1.0248 C   0  0  0  0  0  0  0  0  0  0  0  0
    1.0104   -0.0213   -1.9419 H   0  0  0  0  0  0  0  0  0  0  0  0
    0.5085    0.9549   -0.1045 C   0  0  0  0  0  0  0  0  0  0  0  0
   -0.4890    1.5705    0.2167 O   0  0  0  0  0  0  0  0  0  0  0  0
    1.7210    1.2230    0.2931 O   0  0  0  0  0  0  0  0  0  0  0  0
    1.9126    2.3139    1.2223 C   0  0  0  0  0  0  0  0  0  0  0  0
    2.0335    3.6387    0.4889 C   0  0  0  0  0  0  0  0  0  0  0  0
   -1.2644   -0.4930   -1.5428 S   0  0  0  0  0  0  0  0  0  0  0  0
   -2.3310   -0.2021    0.2892 P   0  0  0  0  0  0  0  0  0  0  0  0
   -1.5179   -0.4877    2.0521 S   0  0  0  0  0  0  0  0  0  0  0  0
   -3.2833    1.0669    0.0967 O   0  0  0  0  0  0  0  0  0  0  0  0
   -3.0859    2.4034    0.5536 C   0  0  0  0  0  0  0  0  0  0  0  0
   -3.4266   -1.3475    0.1233 O   0  0  0  0  0  0  0  0  0  0  0  0
   -4.3025   -1.4531   -1.0115 C   0  0  0  0  0  0  0  0  0  0  0  0
    6.4474   -1.7476   -1.1883 H   0  0  0  0  0  0  0  0  0  0  0  0
    5.1432   -2.6740   -0.4362 H   0  0  0  0  0  0  0  0  0  0  0  0
    5.1312   -2.3898   -2.1838 H   0  0  0  0  0  0  0  0  0  0  0  0
    4.8362    0.0660   -1.7754 H   0  0  0  0  0  0  0  0  0  0  0  0
    4.8123   -0.2565   -0.0104 H   0  0  0  0  0  0  0  0  0  0  0  0
    0.5345   -1.7218    0.5721 H   0  0  0  0  0  0  0  0  0  0  0  0
    0.9519   -2.3343   -1.0466 H   0  0  0  0  0  0  0  0  0  0  0  0
    1.0719    2.3212    1.9216 H   0  0  0  0  0  0  0  0  0  0  0  0
    2.8326    2.0563    1.7473 H   0  0  0  0  0  0  0  0  0  0  0  0
    2.2411    4.4230    1.2091 H   0  0  0  0  0  0  0  0  0  0  0  0
    2.8415    3.5944   -0.2357 H   0  0  0  0  0  0  0  0  0  0  0  0
    1.1041    3.8703   -0.0258 H   0  0  0  0  0  0  0  0  0  0  0  0
   -2.5163    2.9644   -0.1847 H   0  0  0  0  0  0  0  0  0  0  0  0
   -2.5553    2.4050    1.5054 H   0  0  0  0  0  0  0  0  0  0  0  0
   -4.0845    2.8189    0.6719 H   0  0  0  0  0  0  0  0  0  0  0  0
   -4.9660   -0.5913   -1.0500 H   0  0  0  0  0  0  0  0  0  0  0  0
   -4.8665   -2.3682   -0.8497 H   0  0  0  0  0  0  0  0  0  0  0  0
   -3.7181   -1.5186   -1.9297 H   0  0  0  0  0  0  0  0  0  0  0  0
  1  2  1  0  0  0  0
  2  3  1  0  0  0  0
  3  4  1  0  0  0  0
  4  5  2  0  0  0  0
  4  6  1  0  0  0  0
  6  7  1  0  0  0  0
  7  8  1  0  0  0  0
  7  9  1  0  0  0  0
  9 10  2  0  0  0  0
  9 11  4  0  0  0  0
 11 12  1  0  0  0  0
 12 13  1  0  0  0  0
  7 14  1  0  0  0  0
 14 15  1  0  0  0  0
 15 16  2  0  0  0  0
 15 17  2  0  0  0  0
 17 18  1  0  0  0  0
 15 19  1  0  0  0  0
 19 20  1  0  0  0  0
  1 21  1  0  0  0  0
  1 22  1  0  0  0  0
  1 23  1  0  0  0  0
  2 24  1  0  0  0  0
  2 25  1  0  0  0  0
  6 26  1  0  0  0  0
  6 27  1  0  0  0  0
 12 28  1  0  0  0  0
 12 29  1  0  0  0  0
 13 30  1  0  0  0  0
 13 31  1  0  0  0  0
 13 32  1  0  0  0  0
 18 33  1  0  0  0  0
 18 34  1  0  0  0  0
 18 35  1  0  0  0  0
 20 36  1  0  0  0  0
 20 37  1  0  0  0  0
 20 38  1  0  0  0  0
M  END
