 xtb: 6.7.1 (edcfbbe)
          04092507313D

 38 37  0     0  0            999 V2000
    4.1689   -2.2134    1.1219 C   0  0  0  0  0  0  0  0  0  0  0  0
    2.7265   -2.2295    0.6569 C   0  0  0  0  0  0  0  0  0  0  0  0
    2.5709   -1.2089   -0.3483 O   0  0  0  0  0  0  0  0  0  0  0  0
    1.4672   -1.1913   -1.0601 C   0  0  0  0  0  0  0  0  0  0  0  0
    0.5467   -1.9739   -0.9244 O   0  0  0  0  0  0  0  0  0  0  0  0
    1.4663   -0.0692   -2.0777 C   0  0  0  0  0  0  0  0  0  0  0  0
    0.3433    0.9256   -1.7716 C   0  0  0  0  0  0  0  0  0  0  0  0
    0.3061    1.6845   -2.5585 H   0  0  0  0  0  0  0  0  0  0  0  0
    0.5265    1.6234   -0.4383 C   0  0  0  0  0  0  0  0  0  0  0  0
   -0.3947    1.7742    0.3444 O   0  0  0  0  0  0  0  0  0  0  0  0
    1.7517    2.0125   -0.2402 O   0  0  0  0  0  0  0  0  0  0  0  0
    2.0749    2.6733    1.0035 C   0  0  0  0  0  0  0  0  0  0  0  0
    1.7706    4.1595    0.9231 C   0  0  0  0  0  0  0  0  0  0  0  0
   -1.3170    0.1599   -1.7868 S   0  0  0  0  0  0  0  0  0  0  0  0
   -1.7250   -0.3216    0.2447 P   0  0  0  0  0  0  0  0  0  0  0  0
   -0.4763   -0.7563    1.7083 S   0  0  0  0  0  0  0  0  0  0  0  0
   -2.9057    0.6660    0.6454 O   0  0  0  0  0  0  0  0  0  0  0  0
   -2.8652    1.6255    1.7007 C   0  0  0  0  0  0  0  0  0  0  0  0
   -2.7249   -1.5460   -0.0309 O   0  0  0  0  0  0  0  0  0  0  0  0
   -2.2963   -2.8560   -0.3976 C   0  0  0  0  0  0  0  0  0  0  0  0
    4.3072   -2.9804    1.8763 H   0  0  0  0  0  0  0  0  0  0  0  0
    4.8331   -2.4073    0.2849 H   0  0  0  0  0  0  0  0  0  0  0  0
    4.4104   -1.2452    1.5490 H   0  0  0  0  0  0  0  0  0  0  0  0
    2.0301   -2.0122    1.4736 H   0  0  0  0  0  0  0  0  0  0  0  0
    2.4476   -3.1911    0.2146 H   0  0  0  0  0  0  0  0  0  0  0  0
    1.2850   -0.5005   -3.0624 H   0  0  0  0  0  0  0  0  0  0  0  0
    2.4277    0.4421   -2.0493 H   0  0  0  0  0  0  0  0  0  0  0  0
    1.5093    2.1952    1.8083 H   0  0  0  0  0  0  0  0  0  0  0  0
    3.1418    2.4901    1.1286 H   0  0  0  0  0  0  0  0  0  0  0  0
    0.7032    4.3199    0.7905 H   0  0  0  0  0  0  0  0  0  0  0  0
    2.0840    4.6361    1.8459 H   0  0  0  0  0  0  0  0  0  0  0  0
    2.3046    4.6063    0.0893 H   0  0  0  0  0  0  0  0  0  0  0  0
   -2.6205    2.6025    1.2877 H   0  0  0  0  0  0  0  0  0  0  0  0
   -2.1172    1.3428    2.4439 H   0  0  0  0  0  0  0  0  0  0  0  0
   -3.8587    1.6278    2.1436 H   0  0  0  0  0  0  0  0  0  0  0  0
   -1.5061   -3.1961    0.2734 H   0  0  0  0  0  0  0  0  0  0  0  0
   -1.9209   -2.8601   -1.4207 H   0  0  0  0  0  0  0  0  0  0  0  0
   -3.1773   -3.4861   -0.3047 H   0  0  0  0  0  0  0  0  0  0  0  0
  1  2  1  0  0  0  0
  2  3  1  0  0  0  0
  3  4  4  0  0  0  0
  4  5  2  0  0  0  0
  4  6  1  0  0  0  0
  6  7  1  0  0  0  0
  7  8  1  0  0  0  0
  7  9  1  0  0  0  0
  9 10  2  0  0  0  0
  9 11  4  0  0  0  0
 11 12  1  0  0  0  0
 12 13  1  0  0  0  0
  7 14  1  0  0  0  0
 14 15  1  0  0  0  0
 15 16  2  0  0  0  0
 15 17  1  0  0  0  0
 17 18  1  0  0  0  0
 15 19  1  0  0  0  0
 19 20  1  0  0  0  0
  1 21  1  0  0  0  0
  1 22  1  0  0  0  0
  1 23  1  0  0  0  0
  2 24  1  0  0  0  0
  2 25  1  0  0  0  0
  6 26  1  0  0  0  0
  6 27  1  0  0  0  0
 12 28  1  0  0  0  0
 12 29  1  0  0  0  0
 13 30  1  0  0  0  0
 13 31  1  0  0  0  0
 13 32  1  0  0  0  0
 18 33  1  0  0  0  0
 18 34  1  0  0  0  0
 18 35  1  0  0  0  0
 20 36  1  0  0  0  0
 20 37  1  0  0  0  0
 20 38  1  0  0  0  0
M  END
