 xtb: 6.7.1 (edcfbbe)
          04092507313D

 38 37  0     0  0            999 V2000
    4.6304   -4.4295   -1.3361 C   0  0  0  0  0  0  0  0  0  0  0  0
    3.2758   -3.7785   -1.5327 C   0  0  0  0  0  0  0  0  0  0  0  0
    3.2569   -2.5525   -0.7741 O   0  0  0  0  0  0  0  0  0  0  0  0
    2.1763   -1.8036   -0.8444 C   0  0  0  0  0  0  0  0  0  0  0  0
    1.1973   -2.0811   -1.5032 O   0  0  0  0  0  0  0  0  0  0  0  0
    2.3135   -0.5543    0.0016 C   0  0  0  0  0  0  0  0  0  0  0  0
    1.0128    0.2295    0.0130 C   0  0  0  0  0  0  0  0  0  0  0  0
    0.6069    0.2713   -1.0097 H   0  0  0  0  0  0  0  0  0  0  0  0
    1.1807    1.6685    0.4624 C   0  0  0  0  0  0  0  0  0  0  0  0
    2.1923    2.3034    0.2770 O   0  0  0  0  0  0  0  0  0  0  0  0
    0.0882    2.1259    1.0378 O   0  0  0  0  0  0  0  0  0  0  0  0
    0.0385    3.5119    1.4344 C   0  0  0  0  0  0  0  0  0  0  0  0
   -0.6177    4.3506    0.3517 C   0  0  0  0  0  0  0  0  0  0  0  0
   -0.2483   -0.6199    1.0179 S   0  0  0  0  0  0  0  0  0  0  0  0
   -1.9565    0.3069    0.1552 P   0  0  0  0  0  0  0  0  0  0  0  0
   -1.7338    1.1791   -1.5828 S   0  0  0  0  0  0  0  0  0  0  0  0
   -3.0181   -0.8966    0.1531 O   0  0  0  0  0  0  0  0  0  0  0  0
   -2.8682   -1.9988   -0.7458 C   0  0  0  0  0  0  0  0  0  0  0  0
   -2.6062    1.2563    1.2348 O   0  0  0  0  0  0  0  0  0  0  0  0
   -2.9097    0.8055    2.5699 C   0  0  0  0  0  0  0  0  0  0  0  0
    5.4163   -3.7679   -1.6877 H   0  0  0  0  0  0  0  0  0  0  0  0
    4.7932   -4.6379   -0.2831 H   0  0  0  0  0  0  0  0  0  0  0  0
    4.6664   -5.3581   -1.8958 H   0  0  0  0  0  0  0  0  0  0  0  0
    2.4614   -4.4156   -1.1744 H   0  0  0  0  0  0  0  0  0  0  0  0
    3.0864   -3.5372   -2.5833 H   0  0  0  0  0  0  0  0  0  0  0  0
    3.1040    0.0741   -0.4164 H   0  0  0  0  0  0  0  0  0  0  0  0
    2.6124   -0.8432    1.0101 H   0  0  0  0  0  0  0  0  0  0  0  0
   -0.5515    3.5167    2.3512 H   0  0  0  0  0  0  0  0  0  0  0  0
    1.0606    3.8472    1.6296 H   0  0  0  0  0  0  0  0  0  0  0  0
   -0.0165    4.3345   -0.5549 H   0  0  0  0  0  0  0  0  0  0  0  0
   -1.6026    3.9524    0.1183 H   0  0  0  0  0  0  0  0  0  0  0  0
   -0.7145    5.3742    0.6973 H   0  0  0  0  0  0  0  0  0  0  0  0
   -3.7344   -2.6334   -0.5789 H   0  0  0  0  0  0  0  0  0  0  0  0
   -1.9458   -2.5401   -0.5309 H   0  0  0  0  0  0  0  0  0  0  0  0
   -2.8460   -1.6420   -1.7765 H   0  0  0  0  0  0  0  0  0  0  0  0
   -3.2506    1.6919    3.0983 H   0  0  0  0  0  0  0  0  0  0  0  0
   -2.0135    0.3950    3.0354 H   0  0  0  0  0  0  0  0  0  0  0  0
   -3.6923    0.0501    2.5371 H   0  0  0  0  0  0  0  0  0  0  0  0
  1  2  1  0  0  0  0
  2  3  1  0  0  0  0
  3  4  1  0  0  0  0
  4  5  2  0  0  0  0
  4  6  1  0  0  0  0
  6  7  1  0  0  0  0
  7  8  1  0  0  0  0
  7  9  1  0  0  0  0
  9 10  2  0  0  0  0
  9 11  1  0  0  0  0
 11 12  1  0  0  0  0
 12 13  1  0  0  0  0
  7 14  1  0  0  0  0
 14 15  1  0  0  0  0
 15 16  2  0  0  0  0
 15 17  1  0  0  0  0
 17 18  1  0  0  0  0
 15 19  2  0  0  0  0
 19 20  1  0  0  0  0
  1 21  1  0  0  0  0
  1 22  1  0  0  0  0
  1 23  1  0  0  0  0
  2 24  1  0  0  0  0
  2 25  1  0  0  0  0
  6 26  1  0  0  0  0
  6 27  1  0  0  0  0
 12 28  1  0  0  0  0
 12 29  1  0  0  0  0
 13 30  1  0  0  0  0
 13 31  1  0  0  0  0
 13 32  1  0  0  0  0
 18 33  1  0  0  0  0
 18 34  1  0  0  0  0
 18 35  1  0  0  0  0
 20 36  1  0  0  0  0
 20 37  1  0  0  0  0
 20 38  1  0  0  0  0
M  END
