 xtb: 6.7.1 (edcfbbe)
          04092505213D

 41 40  0     0  0            999 V2000
    2.6099    0.3392   -3.1427 C   0  0  0  0  0  0  0  0  0  0  0  0
    2.3599   -0.9255   -2.3471 C   0  0  0  0  0  0  0  0  0  0  0  0
    3.0351   -0.8962   -1.0778 O   0  0  0  0  0  0  0  0  0  0  0  0
    2.5369   -0.1562    0.2377 P   0  0  0  0  0  0  0  0  0  0  0  0
    2.4535    1.7984    0.2777 S   0  0  0  0  0  0  0  0  0  0  0  0
    3.6247   -0.6372    1.2714 O   0  0  0  0  0  0  0  0  0  0  0  0
    3.9202   -2.0325    1.5411 C   0  0  0  0  0  0  0  0  0  0  0  0
    3.4079   -2.4167    2.9151 C   0  0  0  0  0  0  0  0  0  0  0  0
    0.7496   -1.2009    0.7263 S   0  0  0  0  0  0  0  0  0  0  0  0
   -0.0942    0.1395    1.6345 C   0  0  0  0  0  0  0  0  0  0  0  0
   -1.8867    0.0075    1.5345 S   0  0  0  0  0  0  0  0  0  0  0  0
   -2.2169    0.7310   -0.4513 P   0  0  0  0  0  0  0  0  0  0  0  0
   -0.6628    0.9370   -1.6223 S   0  0  0  0  0  0  0  0  0  0  0  0
   -2.9563    2.1106   -0.2661 O   0  0  0  0  0  0  0  0  0  0  0  0
   -3.9222    2.4463    0.7598 C   0  0  0  0  0  0  0  0  0  0  0  0
   -5.0627    1.4557    0.8420 C   0  0  0  0  0  0  0  0  0  0  0  0
   -3.3590   -0.2012   -1.0454 O   0  0  0  0  0  0  0  0  0  0  0  0
   -3.0758   -1.4277   -1.7392 C   0  0  0  0  0  0  0  0  0  0  0  0
   -2.6090   -2.5231   -0.8010 C   0  0  0  0  0  0  0  0  0  0  0  0
    2.1840    0.2279   -4.1344 H   0  0  0  0  0  0  0  0  0  0  0  0
    2.1345    1.1886   -2.6552 H   0  0  0  0  0  0  0  0  0  0  0  0
    3.6767    0.5307   -3.2226 H   0  0  0  0  0  0  0  0  0  0  0  0
    2.7820   -1.7997   -2.8463 H   0  0  0  0  0  0  0  0  0  0  0  0
    1.2886   -1.0691   -2.1847 H   0  0  0  0  0  0  0  0  0  0  0  0
    3.4738   -2.6524    0.7609 H   0  0  0  0  0  0  0  0  0  0  0  0
    5.0076   -2.1021    1.4875 H   0  0  0  0  0  0  0  0  0  0  0  0
    3.7959   -1.7285    3.6608 H   0  0  0  0  0  0  0  0  0  0  0  0
    2.3213   -2.3899    2.9386 H   0  0  0  0  0  0  0  0  0  0  0  0
    3.7415   -3.4229    3.1480 H   0  0  0  0  0  0  0  0  0  0  0  0
    0.2440    1.0914    1.2158 H   0  0  0  0  0  0  0  0  0  0  0  0
    0.1527    0.0651    2.6907 H   0  0  0  0  0  0  0  0  0  0  0  0
   -3.3944    2.5114    1.7148 H   0  0  0  0  0  0  0  0  0  0  0  0
   -4.2663    3.4373    0.4596 H   0  0  0  0  0  0  0  0  0  0  0  0
   -4.6934    0.4864    1.1722 H   0  0  0  0  0  0  0  0  0  0  0  0
   -5.7942    1.8179    1.5578 H   0  0  0  0  0  0  0  0  0  0  0  0
   -5.5345    1.3420   -0.1303 H   0  0  0  0  0  0  0  0  0  0  0  0
   -4.0250   -1.6836   -2.2123 H   0  0  0  0  0  0  0  0  0  0  0  0
   -2.3217   -1.2252   -2.5068 H   0  0  0  0  0  0  0  0  0  0  0  0
   -1.6273   -2.2845   -0.3936 H   0  0  0  0  0  0  0  0  0  0  0  0
   -3.3103   -2.6403    0.0209 H   0  0  0  0  0  0  0  0  0  0  0  0
   -2.5400   -3.4566   -1.3500 H   0  0  0  0  0  0  0  0  0  0  0  0
  1  2  1  0  0  0  0
  2  3  1  0  0  0  0
  3  4  2  0  0  0  0
  4  5  2  0  0  0  0
  4  6  2  0  0  0  0
  6  7  1  0  0  0  0
  7  8  1  0  0  0  0
  4  9  1  0  0  0  0
  9 10  1  0  0  0  0
 10 11  1  0  0  0  0
 11 12  1  0  0  0  0
 12 13  2  0  0  0  0
 12 14  2  0  0  0  0
 14 15  1  0  0  0  0
 15 16  1  0  0  0  0
 12 17  2  0  0  0  0
 17 18  1  0  0  0  0
 18 19  1  0  0  0  0
  1 20  1  0  0  0  0
  1 21  1  0  0  0  0
  1 22  1  0  0  0  0
  2 23  1  0  0  0  0
  2 24  1  0  0  0  0
  7 25  1  0  0  0  0
  7 26  1  0  0  0  0
  8 27  1  0  0  0  0
  8 28  1  0  0  0  0
  8 29  1  0  0  0  0
 10 30  1  0  0  0  0
 10 31  1  0  0  0  0
 15 32  1  0  0  0  0
 15 33  1  0  0  0  0
 16 34  1  0  0  0  0
 16 35  1  0  0  0  0
 16 36  1  0  0  0  0
 18 37  1  0  0  0  0
 18 38  1  0  0  0  0
 19 39  1  0  0  0  0
 19 40  1  0  0  0  0
 19 41  1  0  0  0  0
M  END
