 xtb: 6.7.1 (edcfbbe)
          04092507313D

 38 37  0     0  0            999 V2000
    4.1736   -2.6742    1.1209 C   0  0  0  0  0  0  0  0  0  0  0  0
    4.3698   -2.1193   -0.2807 C   0  0  0  0  0  0  0  0  0  0  0  0
    3.1024   -1.9857   -0.9553 O   0  0  0  0  0  0  0  0  0  0  0  0
    2.4111   -0.8831   -0.7824 C   0  0  0  0  0  0  0  0  0  0  0  0
    2.7917    0.0823   -0.1480 O   0  0  0  0  0  0  0  0  0  0  0  0
    1.0610   -0.9567   -1.4534 C   0  0  0  0  0  0  0  0  0  0  0  0
    0.4087    0.4207   -1.5014 C   0  0  0  0  0  0  0  0  0  0  0  0
    0.7013    0.9826   -2.3894 H   0  0  0  0  0  0  0  0  0  0  0  0
    0.7062    1.2554   -0.2685 C   0  0  0  0  0  0  0  0  0  0  0  0
    0.2818    0.9523    0.8318 O   0  0  0  0  0  0  0  0  0  0  0  0
    1.3093    2.3765   -0.5643 O   0  0  0  0  0  0  0  0  0  0  0  0
    1.6087    3.2918    0.5110 C   0  0  0  0  0  0  0  0  0  0  0  0
    0.3796    4.0920    0.9117 C   0  0  0  0  0  0  0  0  0  0  0  0
   -1.4069    0.3049   -1.5515 S   0  0  0  0  0  0  0  0  0  0  0  0
   -1.9120   -0.3323    0.4300 P   0  0  0  0  0  0  0  0  0  0  0  0
   -0.9438   -1.7920    1.3143 S   0  0  0  0  0  0  0  0  0  0  0  0
   -2.2491    0.9371    1.3176 O   0  0  0  0  0  0  0  0  0  0  0  0
   -3.2420    1.9027    0.9203 C   0  0  0  0  0  0  0  0  0  0  0  0
   -3.4208   -0.7840    0.0948 O   0  0  0  0  0  0  0  0  0  0  0  0
   -3.7052   -1.9949   -0.6098 C   0  0  0  0  0  0  0  0  0  0  0  0
    3.6565   -3.6287    1.0772 H   0  0  0  0  0  0  0  0  0  0  0  0
    5.1399   -2.8084    1.5954 H   0  0  0  0  0  0  0  0  0  0  0  0
    3.5786   -1.9845    1.7170 H   0  0  0  0  0  0  0  0  0  0  0  0
    4.9389   -2.8069   -0.9059 H   0  0  0  0  0  0  0  0  0  0  0  0
    4.8529   -1.1387   -0.2473 H   0  0  0  0  0  0  0  0  0  0  0  0
    0.4665   -1.6424   -0.8368 H   0  0  0  0  0  0  0  0  0  0  0  0
    1.1498   -1.3927   -2.4471 H   0  0  0  0  0  0  0  0  0  0  0  0
    1.9935    2.7118    1.3543 H   0  0  0  0  0  0  0  0  0  0  0  0
    2.3905    3.9307    0.1014 H   0  0  0  0  0  0  0  0  0  0  0  0
   -0.0324    4.6042    0.0465 H   0  0  0  0  0  0  0  0  0  0  0  0
   -0.3750    3.4293    1.3304 H   0  0  0  0  0  0  0  0  0  0  0  0
    0.6600    4.8227    1.6630 H   0  0  0  0  0  0  0  0  0  0  0  0
   -3.0500    2.2453   -0.0972 H   0  0  0  0  0  0  0  0  0  0  0  0
   -3.1415    2.7210    1.6293 H   0  0  0  0  0  0  0  0  0  0  0  0
   -4.2332    1.4575    0.9804 H   0  0  0  0  0  0  0  0  0  0  0  0
   -4.7639   -2.1844   -0.4527 H   0  0  0  0  0  0  0  0  0  0  0  0
   -3.1074   -2.8126   -0.2033 H   0  0  0  0  0  0  0  0  0  0  0  0
   -3.4907   -1.8649   -1.6700 H   0  0  0  0  0  0  0  0  0  0  0  0
  1  2  1  0  0  0  0
  2  3  1  0  0  0  0
  3  4  4  0  0  0  0
  4  5  2  0  0  0  0
  4  6  1  0  0  0  0
  6  7  1  0  0  0  0
  7  8  1  0  0  0  0
  7  9  1  0  0  0  0
  9 10  2  0  0  0  0
  9 11  4  0  0  0  0
 11 12  1  0  0  0  0
 12 13  1  0  0  0  0
  7 14  1  0  0  0  0
 14 15  1  0  0  0  0
 15 16  2  0  0  0  0
 15 17  2  0  0  0  0
 17 18  1  0  0  0  0
 15 19  1  0  0  0  0
 19 20  1  0  0  0  0
  1 21  1  0  0  0  0
  1 22  1  0  0  0  0
  1 23  1  0  0  0  0
  2 24  1  0  0  0  0
  2 25  1  0  0  0  0
  6 26  1  0  0  0  0
  6 27  1  0  0  0  0
 12 28  1  0  0  0  0
 12 29  1  0  0  0  0
 13 30  1  0  0  0  0
 13 31  1  0  0  0  0
 13 32  1  0  0  0  0
 18 33  1  0  0  0  0
 18 34  1  0  0  0  0
 18 35  1  0  0  0  0
 20 36  1  0  0  0  0
 20 37  1  0  0  0  0
 20 38  1  0  0  0  0
M  END
