 xtb: 6.7.1 (edcfbbe)
          04032520013D

 14 14  0     0  0            999 V2000
   -0.7254   -1.8173    0.0001 C   0  0  0  0  0  0  0  0  0  0  0  0
    0.5998   -1.4264   -0.0001 C   0  0  0  0  0  0  0  0  0  0  0  0
    0.9031   -0.0631   -0.0000 C   0  0  0  0  0  0  0  0  0  0  0  0
   -0.1087    0.8929   -0.0000 C   0  0  0  0  0  0  0  0  0  0  0  0
   -1.4387    0.4849    0.0001 C   0  0  0  0  0  0  0  0  0  0  0  0
   -1.7403   -0.8757    0.0001 C   0  0  0  0  0  0  0  0  0  0  0  0
   -2.3924    1.4430   -0.0000 O   0  0  0  0  0  0  0  0  0  0  0  0
    2.2512    0.3537   -0.0002 C   0  0  0  0  0  0  0  0  0  0  0  0
    3.3511    0.6850    0.0002 N   0  0  0  0  0  0  0  0  0  0  0  0
   -0.9731   -2.8670   -0.0001 H   0  0  0  0  0  0  0  0  0  0  0  0
    1.3963   -2.1534   -0.0002 H   0  0  0  0  0  0  0  0  0  0  0  0
    0.1224    1.9465   -0.0001 H   0  0  0  0  0  0  0  0  0  0  0  0
   -2.7708   -1.1977   -0.0003 H   0  0  0  0  0  0  0  0  0  0  0  0
   -3.2805    1.0526    0.0000 H   0  0  0  0  0  0  0  0  0  0  0  0
  1  2  4  0  0  0  0
  2  3  4  0  0  0  0
  3  4  4  0  0  0  0
  4  5  4  0  0  0  0
  1  6  4  0  0  0  0
  5  6  4  0  0  0  0
  5  7  1  0  0  0  0
  3  8  1  0  0  0  0
  8  9  3  0  0  0  0
  1 10  1  0  0  0  0
  2 11  1  0  0  0  0
  4 12  1  0  0  0  0
  6 13  1  0  0  0  0
  7 14  1  0  0  0  0
M  END
