 xtb: 6.7.1 (edcfbbe)
          04092505203D

 41 40  0     0  0            999 V2000
    3.2818    1.0429    3.1301 C   0  0  0  0  0  0  0  0  0  0  0  0
    1.9042    0.5251    2.7750 C   0  0  0  0  0  0  0  0  0  0  0  0
    1.6267    0.6739    1.3653 O   0  0  0  0  0  0  0  0  0  0  0  0
    2.3578   -0.2054    0.2700 P   0  0  0  0  0  0  0  0  0  0  0  0
    2.8497   -2.0245    0.8252 S   0  0  0  0  0  0  0  0  0  0  0  0
    3.5700    0.7307   -0.1513 O   0  0  0  0  0  0  0  0  0  0  0  0
    4.7011    0.2404   -0.8910 C   0  0  0  0  0  0  0  0  0  0  0  0
    4.3329   -0.1437   -2.3096 C   0  0  0  0  0  0  0  0  0  0  0  0
    0.9731   -0.0340   -1.3186 S   0  0  0  0  0  0  0  0  0  0  0  0
   -0.1101   -1.3789   -0.7636 C   0  0  0  0  0  0  0  0  0  0  0  0
   -1.2025   -0.8897    0.5840 S   0  0  0  0  0  0  0  0  0  0  0  0
   -2.5308    0.2867   -0.6124 P   0  0  0  0  0  0  0  0  0  0  0  0
   -2.8068   -0.4242   -2.4177 S   0  0  0  0  0  0  0  0  0  0  0  0
   -1.9773    1.7583   -0.7297 O   0  0  0  0  0  0  0  0  0  0  0  0
   -2.0603    2.7990    0.2734 C   0  0  0  0  0  0  0  0  0  0  0  0
   -1.2622    2.4735    1.5182 C   0  0  0  0  0  0  0  0  0  0  0  0
   -3.7927    0.4914    0.3288 O   0  0  0  0  0  0  0  0  0  0  0  0
   -4.4826   -0.5578    1.0339 C   0  0  0  0  0  0  0  0  0  0  0  0
   -4.9709   -1.6589    0.1167 C   0  0  0  0  0  0  0  0  0  0  0  0
    3.4133    1.0071    4.2069 H   0  0  0  0  0  0  0  0  0  0  0  0
    4.0433    0.4218    2.6600 H   0  0  0  0  0  0  0  0  0  0  0  0
    3.4004    2.0660    2.7831 H   0  0  0  0  0  0  0  0  0  0  0  0
    1.1149    1.0995    3.2611 H   0  0  0  0  0  0  0  0  0  0  0  0
    1.8070   -0.5335    3.0357 H   0  0  0  0  0  0  0  0  0  0  0  0
    5.4089    1.0701   -0.8688 H   0  0  0  0  0  0  0  0  0  0  0  0
    5.1169   -0.6203   -0.3571 H   0  0  0  0  0  0  0  0  0  0  0  0
    3.6707   -1.0088   -2.3024 H   0  0  0  0  0  0  0  0  0  0  0  0
    3.8239    0.6795   -2.8050 H   0  0  0  0  0  0  0  0  0  0  0  0
    5.2335   -0.3952   -2.8605 H   0  0  0  0  0  0  0  0  0  0  0  0
    0.4988   -2.2083   -0.4019 H   0  0  0  0  0  0  0  0  0  0  0  0
   -0.7147   -1.6703   -1.6240 H   0  0  0  0  0  0  0  0  0  0  0  0
   -1.6576    3.6716   -0.2435 H   0  0  0  0  0  0  0  0  0  0  0  0
   -3.1134    2.9596    0.5115 H   0  0  0  0  0  0  0  0  0  0  0  0
   -0.2331    2.2413    1.2538 H   0  0  0  0  0  0  0  0  0  0  0  0
   -1.2760    3.3330    2.1813 H   0  0  0  0  0  0  0  0  0  0  0  0
   -1.6944    1.6182    2.0346 H   0  0  0  0  0  0  0  0  0  0  0  0
   -3.8071   -0.9601    1.7938 H   0  0  0  0  0  0  0  0  0  0  0  0
   -5.3150   -0.0386    1.5123 H   0  0  0  0  0  0  0  0  0  0  0  0
   -5.5588   -2.3698    0.6883 H   0  0  0  0  0  0  0  0  0  0  0  0
   -5.5815   -1.2451   -0.6823 H   0  0  0  0  0  0  0  0  0  0  0  0
   -4.1254   -2.1774   -0.3328 H   0  0  0  0  0  0  0  0  0  0  0  0
  1  2  1  0  0  0  0
  2  3  1  0  0  0  0
  3  4  2  0  0  0  0
  4  5  2  0  0  0  0
  4  6  2  0  0  0  0
  6  7  1  0  0  0  0
  7  8  1  0  0  0  0
  4  9  1  0  0  0  0
  9 10  1  0  0  0  0
 10 11  1  0  0  0  0
 11 12  1  0  0  0  0
 12 13  2  0  0  0  0
 12 14  2  0  0  0  0
 14 15  1  0  0  0  0
 15 16  1  0  0  0  0
 12 17  2  0  0  0  0
 17 18  1  0  0  0  0
 18 19  1  0  0  0  0
  1 20  1  0  0  0  0
  1 21  1  0  0  0  0
  1 22  1  0  0  0  0
  2 23  1  0  0  0  0
  2 24  1  0  0  0  0
  7 25  1  0  0  0  0
  7 26  1  0  0  0  0
  8 27  1  0  0  0  0
  8 28  1  0  0  0  0
  8 29  1  0  0  0  0
 10 30  1  0  0  0  0
 10 31  1  0  0  0  0
 15 32  1  0  0  0  0
 15 33  1  0  0  0  0
 16 34  1  0  0  0  0
 16 35  1  0  0  0  0
 16 36  1  0  0  0  0
 18 37  1  0  0  0  0
 18 38  1  0  0  0  0
 19 39  1  0  0  0  0
 19 40  1  0  0  0  0
 19 41  1  0  0  0  0
M  END
