 xtb: 6.7.1 (edcfbbe)
          04092505213D

 41 40  0     0  0            999 V2000
    1.4311    3.0183    0.0903 C   0  0  0  0  0  0  0  0  0  0  0  0
    2.2004    1.9213    0.7966 C   0  0  0  0  0  0  0  0  0  0  0  0
    1.8389    0.6530    0.2011 O   0  0  0  0  0  0  0  0  0  0  0  0
    1.7530   -0.6892    1.0205 P   0  0  0  0  0  0  0  0  0  0  0  0
    1.3997   -0.5620    2.9416 S   0  0  0  0  0  0  0  0  0  0  0  0
    3.1736   -1.3246    0.6602 O   0  0  0  0  0  0  0  0  0  0  0  0
    3.6214   -2.5486    1.2707 C   0  0  0  0  0  0  0  0  0  0  0  0
    5.0963   -2.7089    0.9623 C   0  0  0  0  0  0  0  0  0  0  0  0
    0.3744   -1.8604   -0.0817 S   0  0  0  0  0  0  0  0  0  0  0  0
    0.6613   -1.2489   -1.7646 C   0  0  0  0  0  0  0  0  0  0  0  0
    0.0230    0.4299   -2.0807 S   0  0  0  0  0  0  0  0  0  0  0  0
   -1.7140    0.4103   -0.8955 P   0  0  0  0  0  0  0  0  0  0  0  0
   -2.9317   -1.1224   -1.0698 S   0  0  0  0  0  0  0  0  0  0  0  0
   -2.3590    1.8118   -1.2706 O   0  0  0  0  0  0  0  0  0  0  0  0
   -3.1232    2.0000   -2.4792 C   0  0  0  0  0  0  0  0  0  0  0  0
   -3.9969    3.2243   -2.2943 C   0  0  0  0  0  0  0  0  0  0  0  0
   -1.1484    0.7185    0.5585 O   0  0  0  0  0  0  0  0  0  0  0  0
   -1.9200    0.3961    1.7336 C   0  0  0  0  0  0  0  0  0  0  0  0
   -3.1441    1.2762    1.8579 C   0  0  0  0  0  0  0  0  0  0  0  0
    1.7073    3.9764    0.5182 H   0  0  0  0  0  0  0  0  0  0  0  0
    1.6639    3.0122   -0.9710 H   0  0  0  0  0  0  0  0  0  0  0  0
    0.3615    2.8651    0.2119 H   0  0  0  0  0  0  0  0  0  0  0  0
    1.9661    1.8864    1.8661 H   0  0  0  0  0  0  0  0  0  0  0  0
    3.2781    2.0418    0.6670 H   0  0  0  0  0  0  0  0  0  0  0  0
    3.4395   -2.4853    2.3488 H   0  0  0  0  0  0  0  0  0  0  0  0
    3.0323   -3.3752    0.8618 H   0  0  0  0  0  0  0  0  0  0  0  0
    5.4539   -3.6321    1.4059 H   0  0  0  0  0  0  0  0  0  0  0  0
    5.2504   -2.7416   -0.1122 H   0  0  0  0  0  0  0  0  0  0  0  0
    5.6548   -1.8729    1.3734 H   0  0  0  0  0  0  0  0  0  0  0  0
    0.1464   -1.9549   -2.4138 H   0  0  0  0  0  0  0  0  0  0  0  0
    1.7278   -1.2175   -1.9750 H   0  0  0  0  0  0  0  0  0  0  0  0
   -2.4211    2.1315   -3.3065 H   0  0  0  0  0  0  0  0  0  0  0  0
   -3.7223    1.1002   -2.6562 H   0  0  0  0  0  0  0  0  0  0  0  0
   -3.3791    4.0887   -2.0700 H   0  0  0  0  0  0  0  0  0  0  0  0
   -4.5522    3.4054   -3.2087 H   0  0  0  0  0  0  0  0  0  0  0  0
   -4.6953    3.0684   -1.4768 H   0  0  0  0  0  0  0  0  0  0  0  0
   -2.2019   -0.6616    1.6829 H   0  0  0  0  0  0  0  0  0  0  0  0
   -1.2227    0.5426    2.5611 H   0  0  0  0  0  0  0  0  0  0  0  0
   -3.6429    1.0625    2.7979 H   0  0  0  0  0  0  0  0  0  0  0  0
   -2.8587    2.3243    1.8271 H   0  0  0  0  0  0  0  0  0  0  0  0
   -3.8294    1.0697    1.0365 H   0  0  0  0  0  0  0  0  0  0  0  0
  1  2  1  0  0  0  0
  2  3  1  0  0  0  0
  3  4  2  0  0  0  0
  4  5  2  0  0  0  0
  4  6  1  0  0  0  0
  6  7  1  0  0  0  0
  7  8  1  0  0  0  0
  4  9  1  0  0  0  0
  9 10  1  0  0  0  0
 10 11  1  0  0  0  0
 11 12  1  0  0  0  0
 12 13  2  0  0  0  0
 12 14  2  0  0  0  0
 14 15  1  0  0  0  0
 15 16  1  0  0  0  0
 12 17  1  0  0  0  0
 17 18  1  0  0  0  0
 18 19  1  0  0  0  0
  1 20  1  0  0  0  0
  1 21  1  0  0  0  0
  1 22  1  0  0  0  0
  2 23  1  0  0  0  0
  2 24  1  0  0  0  0
  7 25  1  0  0  0  0
  7 26  1  0  0  0  0
  8 27  1  0  0  0  0
  8 28  1  0  0  0  0
  8 29  1  0  0  0  0
 10 30  1  0  0  0  0
 10 31  1  0  0  0  0
 15 32  1  0  0  0  0
 15 33  1  0  0  0  0
 16 34  1  0  0  0  0
 16 35  1  0  0  0  0
 16 36  1  0  0  0  0
 18 37  1  0  0  0  0
 18 38  1  0  0  0  0
 19 39  1  0  0  0  0
 19 40  1  0  0  0  0
 19 41  1  0  0  0  0
M  END
