 xtb: 6.7.1 (edcfbbe)
          04092505213D

 41 40  0     0  0            999 V2000
    4.7851   -0.0035   -1.3935 C   0  0  0  0  0  0  0  0  0  0  0  0
    4.5933    0.0394    0.1091 C   0  0  0  0  0  0  0  0  0  0  0  0
    3.3127   -0.4718    0.4999 O   0  0  0  0  0  0  0  0  0  0  0  0
    1.9508    0.2999    0.1546 P   0  0  0  0  0  0  0  0  0  0  0  0
    2.1351    2.2383    0.4024 S   0  0  0  0  0  0  0  0  0  0  0  0
    0.9392   -0.4567    1.1091 O   0  0  0  0  0  0  0  0  0  0  0  0
    0.9149   -0.1699    2.5239 C   0  0  0  0  0  0  0  0  0  0  0  0
    1.7126   -1.1995    3.2972 C   0  0  0  0  0  0  0  0  0  0  0  0
    1.3776   -0.4248   -1.7493 S   0  0  0  0  0  0  0  0  0  0  0  0
    0.1631   -1.7331   -1.3859 C   0  0  0  0  0  0  0  0  0  0  0  0
   -1.5195   -1.3255   -1.9452 S   0  0  0  0  0  0  0  0  0  0  0  0
   -2.1702   -0.0167   -0.4288 P   0  0  0  0  0  0  0  0  0  0  0  0
   -3.9967    0.6519   -0.6409 S   0  0  0  0  0  0  0  0  0  0  0  0
   -1.0090    1.0770   -0.4377 O   0  0  0  0  0  0  0  0  0  0  0  0
   -1.3120    2.4587   -0.1522 C   0  0  0  0  0  0  0  0  0  0  0  0
   -1.5449    2.6850    1.3255 C   0  0  0  0  0  0  0  0  0  0  0  0
   -1.8898   -0.7587    0.9578 O   0  0  0  0  0  0  0  0  0  0  0  0
   -2.8880   -1.5946    1.5707 C   0  0  0  0  0  0  0  0  0  0  0  0
   -3.0568   -2.9129    0.8420 C   0  0  0  0  0  0  0  0  0  0  0  0
    5.7893    0.3266   -1.6391 H   0  0  0  0  0  0  0  0  0  0  0  0
    4.6330   -1.0122   -1.7679 H   0  0  0  0  0  0  0  0  0  0  0  0
    4.0664    0.6594   -1.8770 H   0  0  0  0  0  0  0  0  0  0  0  0
    4.6830    1.0668    0.4779 H   0  0  0  0  0  0  0  0  0  0  0  0
    5.3077   -0.6037    0.6249 H   0  0  0  0  0  0  0  0  0  0  0  0
    1.3072    0.8401    2.6870 H   0  0  0  0  0  0  0  0  0  0  0  0
   -0.1431   -0.1955    2.7928 H   0  0  0  0  0  0  0  0  0  0  0  0
    1.3232   -2.1959    3.1084 H   0  0  0  0  0  0  0  0  0  0  0  0
    2.7573   -1.1681    2.9987 H   0  0  0  0  0  0  0  0  0  0  0  0
    1.6373   -0.9799    4.3578 H   0  0  0  0  0  0  0  0  0  0  0  0
    0.1606   -1.9393   -0.3211 H   0  0  0  0  0  0  0  0  0  0  0  0
    0.4532   -2.6016   -1.9712 H   0  0  0  0  0  0  0  0  0  0  0  0
   -0.4381    3.0064   -0.5091 H   0  0  0  0  0  0  0  0  0  0  0  0
   -2.1948    2.7457   -0.7317 H   0  0  0  0  0  0  0  0  0  0  0  0
   -1.7620    3.7349    1.4939 H   0  0  0  0  0  0  0  0  0  0  0  0
   -2.3902    2.0861    1.6622 H   0  0  0  0  0  0  0  0  0  0  0  0
   -0.6586    2.4090    1.8911 H   0  0  0  0  0  0  0  0  0  0  0  0
   -2.5249   -1.7416    2.5892 H   0  0  0  0  0  0  0  0  0  0  0  0
   -3.8342   -1.0441    1.5894 H   0  0  0  0  0  0  0  0  0  0  0  0
   -3.7584   -3.5339    1.3898 H   0  0  0  0  0  0  0  0  0  0  0  0
   -3.4483   -2.7386   -0.1594 H   0  0  0  0  0  0  0  0  0  0  0  0
   -2.1053   -3.4323    0.7630 H   0  0  0  0  0  0  0  0  0  0  0  0
  1  2  1  0  0  0  0
  2  3  1  0  0  0  0
  3  4  1  0  0  0  0
  4  5  2  0  0  0  0
  4  6  1  0  0  0  0
  6  7  1  0  0  0  0
  7  8  1  0  0  0  0
  4  9  1  0  0  0  0
  9 10  1  0  0  0  0
 10 11  1  0  0  0  0
 11 12  1  0  0  0  0
 12 13  2  0  0  0  0
 12 14  1  0  0  0  0
 14 15  1  0  0  0  0
 15 16  1  0  0  0  0
 12 17  1  0  0  0  0
 17 18  1  0  0  0  0
 18 19  1  0  0  0  0
  1 20  1  0  0  0  0
  1 21  1  0  0  0  0
  1 22  1  0  0  0  0
  2 23  1  0  0  0  0
  2 24  1  0  0  0  0
  7 25  1  0  0  0  0
  7 26  1  0  0  0  0
  8 27  1  0  0  0  0
  8 28  1  0  0  0  0
  8 29  1  0  0  0  0
 10 30  1  0  0  0  0
 10 31  1  0  0  0  0
 15 32  1  0  0  0  0
 15 33  1  0  0  0  0
 16 34  1  0  0  0  0
 16 35  1  0  0  0  0
 16 36  1  0  0  0  0
 18 37  1  0  0  0  0
 18 38  1  0  0  0  0
 19 39  1  0  0  0  0
 19 40  1  0  0  0  0
 19 41  1  0  0  0  0
M  END
