 xtb: 6.7.1 (edcfbbe)
          04032520133D

 22 24  0     0  0            999 V2000
    2.3613   -1.3902    0.0012 C   0  0  0  0  0  0  0  0  0  0  0  0
    1.1627   -0.6991    0.0031 C   0  0  0  0  0  0  0  0  0  0  0  0
    1.1627    0.6991    0.0032 C   0  0  0  0  0  0  0  0  0  0  0  0
    2.3613    1.3903    0.0016 C   0  0  0  0  0  0  0  0  0  0  0  0
    3.5627    0.6943   -0.0002 C   0  0  0  0  0  0  0  0  0  0  0  0
    3.5627   -0.6943   -0.0004 C   0  0  0  0  0  0  0  0  0  0  0  0
    5.0509   -1.5696   -0.0030 Cl  0  0  0  0  0  0  0  0  0  0  0  0
    5.0509    1.5695   -0.0022 Cl  0  0  0  0  0  0  0  0  0  0  0  0
    0.0000    1.4270    0.0048 O   0  0  0  0  0  0  0  0  0  0  0  0
   -1.1627    0.6991    0.0032 C   0  0  0  0  0  0  0  0  0  0  0  0
   -2.3613    1.3902    0.0013 C   0  0  0  0  0  0  0  0  0  0  0  0
   -3.5627    0.6943   -0.0004 C   0  0  0  0  0  0  0  0  0  0  0  0
   -3.5628   -0.6944   -0.0002 C   0  0  0  0  0  0  0  0  0  0  0  0
   -2.3614   -1.3902    0.0016 C   0  0  0  0  0  0  0  0  0  0  0  0
   -1.1627   -0.6991    0.0033 C   0  0  0  0  0  0  0  0  0  0  0  0
   -0.0000   -1.4270    0.0049 O   0  0  0  0  0  0  0  0  0  0  0  0
   -5.0509   -1.5696   -0.0022 Cl  0  0  0  0  0  0  0  0  0  0  0  0
   -5.0509    1.5696   -0.0030 Cl  0  0  0  0  0  0  0  0  0  0  0  0
    2.3470   -2.4668    0.0011 H   0  0  0  0  0  0  0  0  0  0  0  0
    2.3471    2.4668    0.0018 H   0  0  0  0  0  0  0  0  0  0  0  0
   -2.3470    2.4668    0.0012 H   0  0  0  0  0  0  0  0  0  0  0  0
   -2.3471   -2.4668    0.0018 H   0  0  0  0  0  0  0  0  0  0  0  0
  1  2  4  0  0  0  0
  2  3  4  0  0  0  0
  3  4  4  0  0  0  0
  4  5  4  0  0  0  0
  1  6  4  0  0  0  0
  5  6  4  0  0  0  0
  6  7  1  0  0  0  0
  5  8  1  0  0  0  0
  3  9  1  0  0  0  0
  9 10  1  0  0  0  0
 10 11  4  0  0  0  0
 11 12  4  0  0  0  0
 12 13  4  0  0  0  0
 13 14  4  0  0  0  0
 10 15  4  0  0  0  0
 14 15  4  0  0  0  0
  2 16  1  0  0  0  0
 15 16  1  0  0  0  0
 13 17  1  0  0  0  0
 12 18  1  0  0  0  0
  1 19  1  0  0  0  0
  4 20  1  0  0  0  0
 11 21  1  0  0  0  0
 14 22  1  0  0  0  0
M  END
