 xtb: 6.7.1 (edcfbbe)
          04032519423D

 20 20  0     0  0            999 V2000
    0.6131    1.6948   -0.0001 C   0  0  0  0  0  0  0  0  0  0  0  0
    1.4125    0.4013   -0.2297 C   0  0  0  0  0  0  0  0  0  0  0  0
    1.6533    0.2955   -1.2928 H   0  0  0  0  0  0  0  0  0  0  0  0
    0.5486   -0.7972    0.1934 C   0  0  0  0  0  0  0  0  0  0  0  0
    0.3573   -0.7369    1.2769 H   0  0  0  0  0  0  0  0  0  0  0  0
   -0.8019   -0.7402   -0.5399 C   0  0  0  0  0  0  0  0  0  0  0  0
   -0.6177   -0.8716   -1.6126 H   0  0  0  0  0  0  0  0  0  0  0  0
   -1.4665    0.6357   -0.3072 C   0  0  0  0  0  0  0  0  0  0  0  0
   -2.3517    0.7477   -0.9549 H   0  0  0  0  0  0  0  0  0  0  0  0
   -0.6247    1.6770   -0.6965 O   0  0  0  0  0  0  0  0  0  0  0  0
   -1.8368    0.7749    1.0361 O   0  0  0  0  0  0  0  0  0  0  0  0
   -1.6124   -1.7671   -0.0149 O   0  0  0  0  0  0  0  0  0  0  0  0
    1.2355   -1.9855   -0.1090 O   0  0  0  0  0  0  0  0  0  0  0  0
    2.6500    0.4387    0.4265 O   0  0  0  0  0  0  0  0  0  0  0  0
    1.1565    2.5532   -0.3929 H   0  0  0  0  0  0  0  0  0  0  0  0
    0.4283    1.8337    1.0723 H   0  0  0  0  0  0  0  0  0  0  0  0
   -2.1344   -0.0938    1.3575 H   0  0  0  0  0  0  0  0  0  0  0  0
   -2.3301   -1.9794   -0.6278 H   0  0  0  0  0  0  0  0  0  0  0  0
    0.6686   -2.7367    0.1232 H   0  0  0  0  0  0  0  0  0  0  0  0
    2.5155    0.4390    1.3858 H   0  0  0  0  0  0  0  0  0  0  0  0
  1  2  1  0  0  0  0
  2  3  1  0  0  0  0
  2  4  1  0  0  0  0
  4  5  1  0  0  0  0
  4  6  1  0  0  0  0
  6  7  1  0  0  0  0
  6  8  1  0  0  0  0
  8  9  1  0  0  0  0
  1 10  1  0  0  0  0
  8 10  1  0  0  0  0
  8 11  1  0  0  0  0
  6 12  1  0  0  0  0
  4 13  1  0  0  0  0
  2 14  1  0  0  0  0
  1 15  1  0  0  0  0
  1 16  1  0  0  0  0
 11 17  1  0  0  0  0
 12 18  1  0  0  0  0
 13 19  1  0  0  0  0
 14 20  1  0  0  0  0
M  END
