 xtb: 6.7.1 (edcfbbe)
          04092505213D

 41 40  0     0  0            999 V2000
    2.6782   -0.2780   -2.8594 C   0  0  0  0  0  0  0  0  0  0  0  0
    2.5994    0.8536   -1.8526 C   0  0  0  0  0  0  0  0  0  0  0  0
    3.1067    0.4351   -0.5728 O   0  0  0  0  0  0  0  0  0  0  0  0
    2.1846    0.0092    0.6577 P   0  0  0  0  0  0  0  0  0  0  0  0
    0.8078    1.3178    1.1276 S   0  0  0  0  0  0  0  0  0  0  0  0
    3.2455   -0.1612    1.7992 O   0  0  0  0  0  0  0  0  0  0  0  0
    4.4005   -1.0376    1.6732 C   0  0  0  0  0  0  0  0  0  0  0  0
    4.9574   -1.2623    3.0626 C   0  0  0  0  0  0  0  0  0  0  0  0
    1.5592   -1.9969    0.2814 S   0  0  0  0  0  0  0  0  0  0  0  0
   -0.0510   -1.7582   -0.5079 C   0  0  0  0  0  0  0  0  0  0  0  0
   -1.4179   -1.4118    0.6600 S   0  0  0  0  0  0  0  0  0  0  0  0
   -2.2306    0.3208   -0.2416 P   0  0  0  0  0  0  0  0  0  0  0  0
   -1.2984    1.0282   -1.8200 S   0  0  0  0  0  0  0  0  0  0  0  0
   -2.4013    1.3130    0.9767 O   0  0  0  0  0  0  0  0  0  0  0  0
   -2.3205    2.7416    0.8398 C   0  0  0  0  0  0  0  0  0  0  0  0
   -3.5625    3.2963    0.1745 C   0  0  0  0  0  0  0  0  0  0  0  0
   -3.7623   -0.0633   -0.4559 O   0  0  0  0  0  0  0  0  0  0  0  0
   -4.2504   -1.2468   -1.1115 C   0  0  0  0  0  0  0  0  0  0  0  0
   -3.7871   -1.3603   -2.5499 C   0  0  0  0  0  0  0  0  0  0  0  0
    3.7066   -0.6113   -2.9633 H   0  0  0  0  0  0  0  0  0  0  0  0
    2.0680   -1.1208   -2.5448 H   0  0  0  0  0  0  0  0  0  0  0  0
    2.3144    0.0803   -3.8171 H   0  0  0  0  0  0  0  0  0  0  0  0
    1.5743    1.2220   -1.7381 H   0  0  0  0  0  0  0  0  0  0  0  0
    3.2399    1.6866   -2.1484 H   0  0  0  0  0  0  0  0  0  0  0  0
    4.0765   -1.9753    1.2145 H   0  0  0  0  0  0  0  0  0  0  0  0
    5.1221   -0.5422    1.0216 H   0  0  0  0  0  0  0  0  0  0  0  0
    5.2340   -0.3124    3.5114 H   0  0  0  0  0  0  0  0  0  0  0  0
    4.2122   -1.7414    3.6913 H   0  0  0  0  0  0  0  0  0  0  0  0
    5.8340   -1.8983    2.9957 H   0  0  0  0  0  0  0  0  0  0  0  0
   -0.2631   -2.7075   -0.9935 H   0  0  0  0  0  0  0  0  0  0  0  0
   -0.0092   -0.9379   -1.2307 H   0  0  0  0  0  0  0  0  0  0  0  0
   -2.2047    3.0995    1.8636 H   0  0  0  0  0  0  0  0  0  0  0  0
   -1.4189    2.9910    0.2700 H   0  0  0  0  0  0  0  0  0  0  0  0
   -3.4989    4.3790    0.1355 H   0  0  0  0  0  0  0  0  0  0  0  0
   -3.6400    2.9056   -0.8398 H   0  0  0  0  0  0  0  0  0  0  0  0
   -4.4473    3.0010    0.7320 H   0  0  0  0  0  0  0  0  0  0  0  0
   -3.9317   -2.1170   -0.5298 H   0  0  0  0  0  0  0  0  0  0  0  0
   -5.3350   -1.1408   -1.0500 H   0  0  0  0  0  0  0  0  0  0  0  0
   -2.7064   -1.4848   -2.5914 H   0  0  0  0  0  0  0  0  0  0  0  0
   -4.2622   -2.2196   -3.0119 H   0  0  0  0  0  0  0  0  0  0  0  0
   -4.0494   -0.4626   -3.1043 H   0  0  0  0  0  0  0  0  0  0  0  0
  1  2  1  0  0  0  0
  2  3  1  0  0  0  0
  3  4  2  0  0  0  0
  4  5  2  0  0  0  0
  4  6  2  0  0  0  0
  6  7  1  0  0  0  0
  7  8  1  0  0  0  0
  4  9  1  0  0  0  0
  9 10  1  0  0  0  0
 10 11  1  0  0  0  0
 11 12  1  0  0  0  0
 12 13  2  0  0  0  0
 12 14  2  0  0  0  0
 14 15  1  0  0  0  0
 15 16  1  0  0  0  0
 12 17  2  0  0  0  0
 17 18  1  0  0  0  0
 18 19  1  0  0  0  0
  1 20  1  0  0  0  0
  1 21  1  0  0  0  0
  1 22  1  0  0  0  0
  2 23  1  0  0  0  0
  2 24  1  0  0  0  0
  7 25  1  0  0  0  0
  7 26  1  0  0  0  0
  8 27  1  0  0  0  0
  8 28  1  0  0  0  0
  8 29  1  0  0  0  0
 10 30  1  0  0  0  0
 10 31  1  0  0  0  0
 15 32  1  0  0  0  0
 15 33  1  0  0  0  0
 16 34  1  0  0  0  0
 16 35  1  0  0  0  0
 16 36  1  0  0  0  0
 18 37  1  0  0  0  0
 18 38  1  0  0  0  0
 19 39  1  0  0  0  0
 19 40  1  0  0  0  0
 19 41  1  0  0  0  0
M  END
