 xtb: 6.7.1 (edcfbbe)
          04092505203D

 41 40  0     0  0            999 V2000
    2.6993   -1.1005   -2.5990 C   0  0  0  0  0  0  0  0  0  0  0  0
    2.8606    0.2970   -2.0358 C   0  0  0  0  0  0  0  0  0  0  0  0
    3.1952    0.2482   -0.6367 O   0  0  0  0  0  0  0  0  0  0  0  0
    2.1762    0.4047    0.5661 P   0  0  0  0  0  0  0  0  0  0  0  0
    1.1144    2.0520    0.6470 S   0  0  0  0  0  0  0  0  0  0  0  0
    3.1503    0.3624    1.8072 O   0  0  0  0  0  0  0  0  0  0  0  0
    4.3834   -0.3930    1.9007 C   0  0  0  0  0  0  0  0  0  0  0  0
    4.1668   -1.8878    1.7972 C   0  0  0  0  0  0  0  0  0  0  0  0
    1.0313   -1.3909    0.6266 S   0  0  0  0  0  0  0  0  0  0  0  0
   -0.3707   -0.7798    1.6137 C   0  0  0  0  0  0  0  0  0  0  0  0
   -1.9821   -1.1997    0.9075 S   0  0  0  0  0  0  0  0  0  0  0  0
   -2.0757    0.2357   -0.6630 P   0  0  0  0  0  0  0  0  0  0  0  0
   -0.6988    0.1942   -2.0477 S   0  0  0  0  0  0  0  0  0  0  0  0
   -2.1541    1.6482    0.0311 O   0  0  0  0  0  0  0  0  0  0  0  0
   -3.2063    2.0743    0.9341 C   0  0  0  0  0  0  0  0  0  0  0  0
   -2.7345    2.0221    2.3742 C   0  0  0  0  0  0  0  0  0  0  0  0
   -3.5608    0.0352   -1.1989 O   0  0  0  0  0  0  0  0  0  0  0  0
   -3.8861   -0.9024   -2.2414 C   0  0  0  0  0  0  0  0  0  0  0  0
   -3.6517   -2.3372   -1.8167 C   0  0  0  0  0  0  0  0  0  0  0  0
    3.5908   -1.6895   -2.4035 H   0  0  0  0  0  0  0  0  0  0  0  0
    1.8374   -1.5909   -2.1528 H   0  0  0  0  0  0  0  0  0  0  0  0
    2.5382   -1.0293   -3.6696 H   0  0  0  0  0  0  0  0  0  0  0  0
    1.9487    0.8840   -2.1755 H   0  0  0  0  0  0  0  0  0  0  0  0
    3.7012    0.8176   -2.4987 H   0  0  0  0  0  0  0  0  0  0  0  0
    5.0572   -0.0402    1.1181 H   0  0  0  0  0  0  0  0  0  0  0  0
    4.7708   -0.1093    2.8805 H   0  0  0  0  0  0  0  0  0  0  0  0
    5.1154   -2.3916    1.9554 H   0  0  0  0  0  0  0  0  0  0  0  0
    3.4543   -2.2235    2.5460 H   0  0  0  0  0  0  0  0  0  0  0  0
    3.7868   -2.1493    0.8116 H   0  0  0  0  0  0  0  0  0  0  0  0
   -0.2753    0.3069    1.6943 H   0  0  0  0  0  0  0  0  0  0  0  0
   -0.3416   -1.2593    2.5883 H   0  0  0  0  0  0  0  0  0  0  0  0
   -3.4161    3.1004    0.6278 H   0  0  0  0  0  0  0  0  0  0  0  0
   -4.0881    1.4516    0.7738 H   0  0  0  0  0  0  0  0  0  0  0  0
   -2.6385    0.9943    2.7155 H   0  0  0  0  0  0  0  0  0  0  0  0
   -1.7707    2.5195    2.4617 H   0  0  0  0  0  0  0  0  0  0  0  0
   -3.4569    2.5354    3.0009 H   0  0  0  0  0  0  0  0  0  0  0  0
   -4.9399   -0.7063   -2.4441 H   0  0  0  0  0  0  0  0  0  0  0  0
   -3.2848   -0.6587   -3.1228 H   0  0  0  0  0  0  0  0  0  0  0  0
   -4.0258   -3.0037   -2.5871 H   0  0  0  0  0  0  0  0  0  0  0  0
   -2.5855   -2.5157   -1.6841 H   0  0  0  0  0  0  0  0  0  0  0  0
   -4.1615   -2.5440   -0.8789 H   0  0  0  0  0  0  0  0  0  0  0  0
  1  2  1  0  0  0  0
  2  3  1  0  0  0  0
  3  4  2  0  0  0  0
  4  5  2  0  0  0  0
  4  6  2  0  0  0  0
  6  7  1  0  0  0  0
  7  8  1  0  0  0  0
  4  9  1  0  0  0  0
  9 10  1  0  0  0  0
 10 11  1  0  0  0  0
 11 12  1  0  0  0  0
 12 13  2  0  0  0  0
 12 14  2  0  0  0  0
 14 15  1  0  0  0  0
 15 16  1  0  0  0  0
 12 17  2  0  0  0  0
 17 18  1  0  0  0  0
 18 19  1  0  0  0  0
  1 20  1  0  0  0  0
  1 21  1  0  0  0  0
  1 22  1  0  0  0  0
  2 23  1  0  0  0  0
  2 24  1  0  0  0  0
  7 25  1  0  0  0  0
  7 26  1  0  0  0  0
  8 27  1  0  0  0  0
  8 28  1  0  0  0  0
  8 29  1  0  0  0  0
 10 30  1  0  0  0  0
 10 31  1  0  0  0  0
 15 32  1  0  0  0  0
 15 33  1  0  0  0  0
 16 34  1  0  0  0  0
 16 35  1  0  0  0  0
 16 36  1  0  0  0  0
 18 37  1  0  0  0  0
 18 38  1  0  0  0  0
 19 39  1  0  0  0  0
 19 40  1  0  0  0  0
 19 41  1  0  0  0  0
M  END
