 xtb: 6.7.1 (edcfbbe)
          04092507313D

 38 37  0     0  0            999 V2000
    4.9920   -2.6495   -0.8028 C   0  0  0  0  0  0  0  0  0  0  0  0
    3.6312   -3.0797   -1.3268 C   0  0  0  0  0  0  0  0  0  0  0  0
    2.9389   -1.9688   -1.9310 O   0  0  0  0  0  0  0  0  0  0  0  0
    2.2295   -1.1744   -1.1655 C   0  0  0  0  0  0  0  0  0  0  0  0
    2.0744   -1.3165    0.0324 O   0  0  0  0  0  0  0  0  0  0  0  0
    1.6155   -0.0293   -1.9424 C   0  0  0  0  0  0  0  0  0  0  0  0
    0.4318    0.5222   -1.1610 C   0  0  0  0  0  0  0  0  0  0  0  0
    0.0875    1.4710   -1.5817 H   0  0  0  0  0  0  0  0  0  0  0  0
    0.7865    0.7514    0.2946 C   0  0  0  0  0  0  0  0  0  0  0  0
    0.0536    0.4003    1.2032 O   0  0  0  0  0  0  0  0  0  0  0  0
    1.8777    1.4497    0.4371 O   0  0  0  0  0  0  0  0  0  0  0  0
    2.2665    1.8366    1.7732 C   0  0  0  0  0  0  0  0  0  0  0  0
    1.5491    3.1094    2.1915 C   0  0  0  0  0  0  0  0  0  0  0  0
   -0.9700   -0.6533   -1.2039 S   0  0  0  0  0  0  0  0  0  0  0  0
   -2.2140    0.1744    0.3021 P   0  0  0  0  0  0  0  0  0  0  0  0
   -2.2287    2.1265    0.5594 S   0  0  0  0  0  0  0  0  0  0  0  0
   -3.6234   -0.3250   -0.2917 O   0  0  0  0  0  0  0  0  0  0  0  0
   -4.1593    0.2254   -1.4965 C   0  0  0  0  0  0  0  0  0  0  0  0
   -2.3299   -0.7873    1.5597 O   0  0  0  0  0  0  0  0  0  0  0  0
   -1.8977   -0.4953    2.8884 C   0  0  0  0  0  0  0  0  0  0  0  0
    5.5197   -3.5172   -0.4211 H   0  0  0  0  0  0  0  0  0  0  0  0
    5.5742   -2.1983   -1.6013 H   0  0  0  0  0  0  0  0  0  0  0  0
    4.8724   -1.9279    0.0022 H   0  0  0  0  0  0  0  0  0  0  0  0
    3.0116   -3.4807   -0.5197 H   0  0  0  0  0  0  0  0  0  0  0  0
    3.7262   -3.8088   -2.1313 H   0  0  0  0  0  0  0  0  0  0  0  0
    1.3116   -0.3727   -2.9299 H   0  0  0  0  0  0  0  0  0  0  0  0
    2.3732    0.7497   -2.0527 H   0  0  0  0  0  0  0  0  0  0  0  0
    2.0382    1.0112    2.4524 H   0  0  0  0  0  0  0  0  0  0  0  0
    3.3437    1.9877    1.7056 H   0  0  0  0  0  0  0  0  0  0  0  0
    0.4711    2.9573    2.1807 H   0  0  0  0  0  0  0  0  0  0  0  0
    1.8560    3.3821    3.1956 H   0  0  0  0  0  0  0  0  0  0  0  0
    1.7902    3.9187    1.5083 H   0  0  0  0  0  0  0  0  0  0  0  0
   -3.6000   -0.1388   -2.3588 H   0  0  0  0  0  0  0  0  0  0  0  0
   -4.1197    1.3163   -1.4598 H   0  0  0  0  0  0  0  0  0  0  0  0
   -5.1911   -0.1140   -1.5387 H   0  0  0  0  0  0  0  0  0  0  0  0
   -1.8463    0.5832    3.0454 H   0  0  0  0  0  0  0  0  0  0  0  0
   -0.9163   -0.9365    3.0538 H   0  0  0  0  0  0  0  0  0  0  0  0
   -2.6415   -0.9404    3.5460 H   0  0  0  0  0  0  0  0  0  0  0  0
  1  2  1  0  0  0  0
  2  3  1  0  0  0  0
  3  4  4  0  0  0  0
  4  5  2  0  0  0  0
  4  6  1  0  0  0  0
  6  7  1  0  0  0  0
  7  8  1  0  0  0  0
  7  9  1  0  0  0  0
  9 10  2  0  0  0  0
  9 11  4  0  0  0  0
 11 12  1  0  0  0  0
 12 13  1  0  0  0  0
  7 14  1  0  0  0  0
 14 15  1  0  0  0  0
 15 16  2  0  0  0  0
 15 17  1  0  0  0  0
 17 18  1  0  0  0  0
 15 19  2  0  0  0  0
 19 20  1  0  0  0  0
  1 21  1  0  0  0  0
  1 22  1  0  0  0  0
  1 23  1  0  0  0  0
  2 24  1  0  0  0  0
  2 25  1  0  0  0  0
  6 26  1  0  0  0  0
  6 27  1  0  0  0  0
 12 28  1  0  0  0  0
 12 29  1  0  0  0  0
 13 30  1  0  0  0  0
 13 31  1  0  0  0  0
 13 32  1  0  0  0  0
 18 33  1  0  0  0  0
 18 34  1  0  0  0  0
 18 35  1  0  0  0  0
 20 36  1  0  0  0  0
 20 37  1  0  0  0  0
 20 38  1  0  0  0  0
M  END
