 xtb: 6.7.1 (edcfbbe)
          04092505213D

 41 40  0     0  0            999 V2000
    5.7270    0.3478   -1.2704 C   0  0  0  0  0  0  0  0  0  0  0  0
    4.2531    0.0760   -1.4944 C   0  0  0  0  0  0  0  0  0  0  0  0
    3.6671   -0.2577   -0.2205 O   0  0  0  0  0  0  0  0  0  0  0  0
    2.0950   -0.2496    0.0038 P   0  0  0  0  0  0  0  0  0  0  0  0
    1.1968    1.4028   -0.5848 S   0  0  0  0  0  0  0  0  0  0  0  0
    1.9745   -0.5939    1.5406 O   0  0  0  0  0  0  0  0  0  0  0  0
    1.9718    0.4231    2.5634 C   0  0  0  0  0  0  0  0  0  0  0  0
    3.3516    1.0119    2.7681 C   0  0  0  0  0  0  0  0  0  0  0  0
    1.4947   -2.0701   -0.8594 S   0  0  0  0  0  0  0  0  0  0  0  0
   -0.2691   -1.7279   -1.0972 C   0  0  0  0  0  0  0  0  0  0  0  0
   -1.1164   -1.2665    0.4435 S   0  0  0  0  0  0  0  0  0  0  0  0
   -2.2255    0.4326   -0.2511 P   0  0  0  0  0  0  0  0  0  0  0  0
   -2.0744    0.8886   -2.1445 S   0  0  0  0  0  0  0  0  0  0  0  0
   -1.8248    1.6133    0.7101 O   0  0  0  0  0  0  0  0  0  0  0  0
   -1.7702    1.5333    2.1541 C   0  0  0  0  0  0  0  0  0  0  0  0
   -3.1141    1.8305    2.7867 C   0  0  0  0  0  0  0  0  0  0  0  0
   -3.7155    0.1198    0.2239 O   0  0  0  0  0  0  0  0  0  0  0  0
   -4.6584   -0.5937   -0.5933 C   0  0  0  0  0  0  0  0  0  0  0  0
   -4.2421   -2.0294   -0.8410 C   0  0  0  0  0  0  0  0  0  0  0  0
    6.1972    0.5659   -2.2236 H   0  0  0  0  0  0  0  0  0  0  0  0
    5.8563    1.1963   -0.6047 H   0  0  0  0  0  0  0  0  0  0  0  0
    6.1982   -0.5240   -0.8263 H   0  0  0  0  0  0  0  0  0  0  0  0
    4.1017   -0.7682   -2.1727 H   0  0  0  0  0  0  0  0  0  0  0  0
    3.7365    0.9543   -1.8967 H   0  0  0  0  0  0  0  0  0  0  0  0
    1.2588    1.2023    2.2739 H   0  0  0  0  0  0  0  0  0  0  0  0
    1.6148   -0.0998    3.4515 H   0  0  0  0  0  0  0  0  0  0  0  0
    4.0714    0.2203    2.9568 H   0  0  0  0  0  0  0  0  0  0  0  0
    3.6553    1.5582    1.8765 H   0  0  0  0  0  0  0  0  0  0  0  0
    3.3307    1.6937    3.6125 H   0  0  0  0  0  0  0  0  0  0  0  0
   -0.6942   -2.6570   -1.4695 H   0  0  0  0  0  0  0  0  0  0  0  0
   -0.4005   -0.9158   -1.8188 H   0  0  0  0  0  0  0  0  0  0  0  0
   -1.4101    0.5396    2.4381 H   0  0  0  0  0  0  0  0  0  0  0  0
   -1.0300    2.2889    2.4268 H   0  0  0  0  0  0  0  0  0  0  0  0
   -2.9927    1.8680    3.8649 H   0  0  0  0  0  0  0  0  0  0  0  0
   -3.4862    2.7883    2.4334 H   0  0  0  0  0  0  0  0  0  0  0  0
   -3.8336    1.0578    2.5324 H   0  0  0  0  0  0  0  0  0  0  0  0
   -5.5888   -0.5358   -0.0266 H   0  0  0  0  0  0  0  0  0  0  0  0
   -4.7655   -0.0573   -1.5410 H   0  0  0  0  0  0  0  0  0  0  0  0
   -3.3619   -2.0517   -1.4821 H   0  0  0  0  0  0  0  0  0  0  0  0
   -4.0123   -2.5262    0.0982 H   0  0  0  0  0  0  0  0  0  0  0  0
   -5.0507   -2.5545   -1.3392 H   0  0  0  0  0  0  0  0  0  0  0  0
  1  2  1  0  0  0  0
  2  3  1  0  0  0  0
  3  4  2  0  0  0  0
  4  5  2  0  0  0  0
  4  6  2  0  0  0  0
  6  7  1  0  0  0  0
  7  8  1  0  0  0  0
  4  9  1  0  0  0  0
  9 10  1  0  0  0  0
 10 11  1  0  0  0  0
 11 12  1  0  0  0  0
 12 13  2  0  0  0  0
 12 14  2  0  0  0  0
 14 15  1  0  0  0  0
 15 16  1  0  0  0  0
 12 17  2  0  0  0  0
 17 18  1  0  0  0  0
 18 19  1  0  0  0  0
  1 20  1  0  0  0  0
  1 21  1  0  0  0  0
  1 22  1  0  0  0  0
  2 23  1  0  0  0  0
  2 24  1  0  0  0  0
  7 25  1  0  0  0  0
  7 26  1  0  0  0  0
  8 27  1  0  0  0  0
  8 28  1  0  0  0  0
  8 29  1  0  0  0  0
 10 30  1  0  0  0  0
 10 31  1  0  0  0  0
 15 32  1  0  0  0  0
 15 33  1  0  0  0  0
 16 34  1  0  0  0  0
 16 35  1  0  0  0  0
 16 36  1  0  0  0  0
 18 37  1  0  0  0  0
 18 38  1  0  0  0  0
 19 39  1  0  0  0  0
 19 40  1  0  0  0  0
 19 41  1  0  0  0  0
M  END
