 xtb: 6.7.1 (edcfbbe)
          04032519403D

 22 24  0     0  0            999 V2000
    3.5677    0.6913    0.0019 C   0  0  0  0  0  0  0  0  0  0  0  0
    3.5677   -0.6913    0.0023 C   0  0  0  0  0  0  0  0  0  0  0  0
    2.3691   -1.3869    0.0008 C   0  0  0  0  0  0  0  0  0  0  0  0
    1.1686   -0.6973   -0.0010 C   0  0  0  0  0  0  0  0  0  0  0  0
    1.1686    0.6973   -0.0013 C   0  0  0  0  0  0  0  0  0  0  0  0
    2.3690    1.3870    0.0002 C   0  0  0  0  0  0  0  0  0  0  0  0
    0.0000    1.4302   -0.0027 O   0  0  0  0  0  0  0  0  0  0  0  0
   -1.1686    0.6973   -0.0011 C   0  0  0  0  0  0  0  0  0  0  0  0
   -2.3691    1.3869    0.0008 C   0  0  0  0  0  0  0  0  0  0  0  0
   -3.5678    0.6913    0.0024 C   0  0  0  0  0  0  0  0  0  0  0  0
   -3.5677   -0.6913    0.0019 C   0  0  0  0  0  0  0  0  0  0  0  0
   -2.3691   -1.3869    0.0001 C   0  0  0  0  0  0  0  0  0  0  0  0
   -1.1686   -0.6973   -0.0013 C   0  0  0  0  0  0  0  0  0  0  0  0
    0.0000   -1.4302   -0.0026 O   0  0  0  0  0  0  0  0  0  0  0  0
    4.4974    1.2367    0.0032 H   0  0  0  0  0  0  0  0  0  0  0  0
    4.4973   -1.2367    0.0038 H   0  0  0  0  0  0  0  0  0  0  0  0
    2.3396   -2.4643    0.0009 H   0  0  0  0  0  0  0  0  0  0  0  0
    2.3397    2.4643   -0.0001 H   0  0  0  0  0  0  0  0  0  0  0  0
   -2.3395    2.4642    0.0012 H   0  0  0  0  0  0  0  0  0  0  0  0
   -4.4972    1.2368    0.0041 H   0  0  0  0  0  0  0  0  0  0  0  0
   -4.4973   -1.2368    0.0034 H   0  0  0  0  0  0  0  0  0  0  0  0
   -2.3397   -2.4643   -0.0001 H   0  0  0  0  0  0  0  0  0  0  0  0
  1  2  4  0  0  0  0
  2  3  4  0  0  0  0
  3  4  4  0  0  0  0
  4  5  4  0  0  0  0
  1  6  4  0  0  0  0
  5  6  4  0  0  0  0
  5  7  1  0  0  0  0
  7  8  1  0  0  0  0
  8  9  4  0  0  0  0
  9 10  4  0  0  0  0
 10 11  4  0  0  0  0
 11 12  4  0  0  0  0
  8 13  4  0  0  0  0
 12 13  4  0  0  0  0
  4 14  1  0  0  0  0
 13 14  1  0  0  0  0
  1 15  1  0  0  0  0
  2 16  1  0  0  0  0
  3 17  1  0  0  0  0
  6 18  1  0  0  0  0
  9 19  1  0  0  0  0
 10 20  1  0  0  0  0
 11 21  1  0  0  0  0
 12 22  1  0  0  0  0
M  END
