 xtb: 6.7.1 (edcfbbe)
          04092507313D

 38 37  0     0  0            999 V2000
    5.1282   -1.0021    0.6589 C   0  0  0  0  0  0  0  0  0  0  0  0
    4.7334   -1.3932   -0.7560 C   0  0  0  0  0  0  0  0  0  0  0  0
    3.3224   -1.6772   -0.8339 O   0  0  0  0  0  0  0  0  0  0  0  0
    2.4913   -0.6930   -1.1033 C   0  0  0  0  0  0  0  0  0  0  0  0
    2.8249    0.4504   -1.3387 O   0  0  0  0  0  0  0  0  0  0  0  0
    1.0539   -1.1678   -1.0937 C   0  0  0  0  0  0  0  0  0  0  0  0
    0.1425   -0.0430   -1.5524 C   0  0  0  0  0  0  0  0  0  0  0  0
    0.3219    0.2170   -2.5989 H   0  0  0  0  0  0  0  0  0  0  0  0
    0.2770    1.2291   -0.7371 C   0  0  0  0  0  0  0  0  0  0  0  0
   -0.0197    2.3179   -1.1793 O   0  0  0  0  0  0  0  0  0  0  0  0
    0.6755    0.9915    0.4919 O   0  0  0  0  0  0  0  0  0  0  0  0
    0.9049    2.0974    1.3851 C   0  0  0  0  0  0  0  0  0  0  0  0
    2.3700    2.1188    1.7828 C   0  0  0  0  0  0  0  0  0  0  0  0
   -1.6207   -0.5152   -1.5089 S   0  0  0  0  0  0  0  0  0  0  0  0
   -2.0995   -0.2488    0.5533 P   0  0  0  0  0  0  0  0  0  0  0  0
   -1.0528   -1.1874    1.9105 S   0  0  0  0  0  0  0  0  0  0  0  0
   -2.2032    1.3064    0.8328 O   0  0  0  0  0  0  0  0  0  0  0  0
   -3.0275    2.2052    0.0611 C   0  0  0  0  0  0  0  0  0  0  0  0
   -3.6429   -0.6561    0.5244 O   0  0  0  0  0  0  0  0  0  0  0  0
   -4.0449   -2.0259    0.3894 C   0  0  0  0  0  0  0  0  0  0  0  0
    4.8304   -1.7790    1.3575 H   0  0  0  0  0  0  0  0  0  0  0  0
    6.2036   -0.8676    0.7077 H   0  0  0  0  0  0  0  0  0  0  0  0
    4.6427   -0.0701    0.9393 H   0  0  0  0  0  0  0  0  0  0  0  0
    5.2153   -2.3224   -1.0601 H   0  0  0  0  0  0  0  0  0  0  0  0
    4.9678   -0.5914   -1.4622 H   0  0  0  0  0  0  0  0  0  0  0  0
    0.8113   -1.4790   -0.0733 H   0  0  0  0  0  0  0  0  0  0  0  0
    0.9515   -2.0368   -1.7440 H   0  0  0  0  0  0  0  0  0  0  0  0
    0.6109    3.0192    0.8758 H   0  0  0  0  0  0  0  0  0  0  0  0
    0.2573    1.9229    2.2479 H   0  0  0  0  0  0  0  0  0  0  0  0
    2.5531    2.9669    2.4338 H   0  0  0  0  0  0  0  0  0  0  0  0
    2.6247    1.2009    2.3058 H   0  0  0  0  0  0  0  0  0  0  0  0
    2.9901    2.2065    0.8929 H   0  0  0  0  0  0  0  0  0  0  0  0
   -3.3509    2.9744    0.7577 H   0  0  0  0  0  0  0  0  0  0  0  0
   -3.8838    1.6786   -0.3539 H   0  0  0  0  0  0  0  0  0  0  0  0
   -2.4209    2.6413   -0.7335 H   0  0  0  0  0  0  0  0  0  0  0  0
   -3.4622   -2.6546    1.0641 H   0  0  0  0  0  0  0  0  0  0  0  0
   -3.9038   -2.3516   -0.6404 H   0  0  0  0  0  0  0  0  0  0  0  0
   -5.0972   -2.0492    0.6609 H   0  0  0  0  0  0  0  0  0  0  0  0
  1  2  1  0  0  0  0
  2  3  1  0  0  0  0
  3  4  1  0  0  0  0
  4  5  2  0  0  0  0
  4  6  1  0  0  0  0
  6  7  1  0  0  0  0
  7  8  1  0  0  0  0
  7  9  1  0  0  0  0
  9 10  2  0  0  0  0
  9 11  1  0  0  0  0
 11 12  1  0  0  0  0
 12 13  1  0  0  0  0
  7 14  1  0  0  0  0
 14 15  1  0  0  0  0
 15 16  2  0  0  0  0
 15 17  2  0  0  0  0
 17 18  1  0  0  0  0
 15 19  2  0  0  0  0
 19 20  1  0  0  0  0
  1 21  1  0  0  0  0
  1 22  1  0  0  0  0
  1 23  1  0  0  0  0
  2 24  1  0  0  0  0
  2 25  1  0  0  0  0
  6 26  1  0  0  0  0
  6 27  1  0  0  0  0
 12 28  1  0  0  0  0
 12 29  1  0  0  0  0
 13 30  1  0  0  0  0
 13 31  1  0  0  0  0
 13 32  1  0  0  0  0
 18 33  1  0  0  0  0
 18 34  1  0  0  0  0
 18 35  1  0  0  0  0
 20 36  1  0  0  0  0
 20 37  1  0  0  0  0
 20 38  1  0  0  0  0
M  END
