 xtb: 6.7.1 (edcfbbe)
          04092505203D

 41 40  0     0  0            999 V2000
    1.6920   -1.3983   -2.6509 C   0  0  0  0  0  0  0  0  0  0  0  0
    2.4501   -0.1061   -2.4337 C   0  0  0  0  0  0  0  0  0  0  0  0
    2.0406    0.5786   -1.2254 O   0  0  0  0  0  0  0  0  0  0  0  0
    2.1804    0.0161    0.2424 P   0  0  0  0  0  0  0  0  0  0  0  0
    2.3158    1.4150    1.6057 S   0  0  0  0  0  0  0  0  0  0  0  0
    3.4834   -0.8915    0.1003 O   0  0  0  0  0  0  0  0  0  0  0  0
    4.2863   -1.2799    1.2287 C   0  0  0  0  0  0  0  0  0  0  0  0
    3.5456   -2.1910    2.1859 C   0  0  0  0  0  0  0  0  0  0  0  0
    0.6253   -1.4054    0.5437 S   0  0  0  0  0  0  0  0  0  0  0  0
   -0.3877   -0.5564    1.7946 C   0  0  0  0  0  0  0  0  0  0  0  0
   -2.1320   -0.4967    1.3440 S   0  0  0  0  0  0  0  0  0  0  0  0
   -1.9380    0.6340   -0.4488 P   0  0  0  0  0  0  0  0  0  0  0  0
   -0.6339    2.0987   -0.3620 S   0  0  0  0  0  0  0  0  0  0  0  0
   -3.4439    0.9918   -0.8034 O   0  0  0  0  0  0  0  0  0  0  0  0
   -4.4142    1.5190    0.1208 C   0  0  0  0  0  0  0  0  0  0  0  0
   -3.9501    2.7936    0.7932 C   0  0  0  0  0  0  0  0  0  0  0  0
   -1.5581   -0.3193   -1.6469 O   0  0  0  0  0  0  0  0  0  0  0  0
   -2.3972   -1.3605   -2.2144 C   0  0  0  0  0  0  0  0  0  0  0  0
   -2.2899   -2.6616   -1.4439 C   0  0  0  0  0  0  0  0  0  0  0  0
    0.6222   -1.2069   -2.6248 H   0  0  0  0  0  0  0  0  0  0  0  0
    1.9618   -1.8108   -3.6180 H   0  0  0  0  0  0  0  0  0  0  0  0
    1.9423   -2.1175   -1.8724 H   0  0  0  0  0  0  0  0  0  0  0  0
    2.2321    0.6251   -3.2142 H   0  0  0  0  0  0  0  0  0  0  0  0
    3.5261   -0.2832   -2.3771 H   0  0  0  0  0  0  0  0  0  0  0  0
    5.1414   -1.7822    0.7739 H   0  0  0  0  0  0  0  0  0  0  0  0
    4.6161   -0.3722    1.7433 H   0  0  0  0  0  0  0  0  0  0  0  0
    4.2391   -2.5555    2.9369 H   0  0  0  0  0  0  0  0  0  0  0  0
    2.7507   -1.6364    2.6824 H   0  0  0  0  0  0  0  0  0  0  0  0
    3.1123   -3.0336    1.6533 H   0  0  0  0  0  0  0  0  0  0  0  0
    0.0037    0.4572    1.9215 H   0  0  0  0  0  0  0  0  0  0  0  0
   -0.3397   -1.1161    2.7254 H   0  0  0  0  0  0  0  0  0  0  0  0
   -5.2921    1.6954   -0.5034 H   0  0  0  0  0  0  0  0  0  0  0  0
   -4.6323    0.7469    0.8635 H   0  0  0  0  0  0  0  0  0  0  0  0
   -3.6772    3.5384    0.0492 H   0  0  0  0  0  0  0  0  0  0  0  0
   -4.7463    3.1834    1.4189 H   0  0  0  0  0  0  0  0  0  0  0  0
   -3.0760    2.5960    1.4125 H   0  0  0  0  0  0  0  0  0  0  0  0
   -3.4256   -0.9987   -2.2490 H   0  0  0  0  0  0  0  0  0  0  0  0
   -2.0117   -1.4680   -3.2299 H   0  0  0  0  0  0  0  0  0  0  0  0
   -2.7887   -3.4426   -2.0092 H   0  0  0  0  0  0  0  0  0  0  0  0
   -1.2464   -2.9324   -1.3032 H   0  0  0  0  0  0  0  0  0  0  0  0
   -2.7610   -2.5757   -0.4683 H   0  0  0  0  0  0  0  0  0  0  0  0
  1  2  1  0  0  0  0
  2  3  1  0  0  0  0
  3  4  2  0  0  0  0
  4  5  2  0  0  0  0
  4  6  2  0  0  0  0
  6  7  1  0  0  0  0
  7  8  1  0  0  0  0
  4  9  1  0  0  0  0
  9 10  1  0  0  0  0
 10 11  1  0  0  0  0
 11 12  1  0  0  0  0
 12 13  2  0  0  0  0
 12 14  2  0  0  0  0
 14 15  1  0  0  0  0
 15 16  1  0  0  0  0
 12 17  2  0  0  0  0
 17 18  1  0  0  0  0
 18 19  1  0  0  0  0
  1 20  1  0  0  0  0
  1 21  1  0  0  0  0
  1 22  1  0  0  0  0
  2 23  1  0  0  0  0
  2 24  1  0  0  0  0
  7 25  1  0  0  0  0
  7 26  1  0  0  0  0
  8 27  1  0  0  0  0
  8 28  1  0  0  0  0
  8 29  1  0  0  0  0
 10 30  1  0  0  0  0
 10 31  1  0  0  0  0
 15 32  1  0  0  0  0
 15 33  1  0  0  0  0
 16 34  1  0  0  0  0
 16 35  1  0  0  0  0
 16 36  1  0  0  0  0
 18 37  1  0  0  0  0
 18 38  1  0  0  0  0
 19 39  1  0  0  0  0
 19 40  1  0  0  0  0
 19 41  1  0  0  0  0
M  END
