 xtb: 6.7.1 (edcfbbe)
          04092505213D

 41 40  0     0  0            999 V2000
    5.7358    0.4324    0.1242 C   0  0  0  0  0  0  0  0  0  0  0  0
    4.8359    0.1235   -1.0541 C   0  0  0  0  0  0  0  0  0  0  0  0
    3.6201    0.9159   -1.0077 O   0  0  0  0  0  0  0  0  0  0  0  0
    2.2864    0.4448   -0.3277 P   0  0  0  0  0  0  0  0  0  0  0  0
    0.8394    1.7306   -0.6111 S   0  0  0  0  0  0  0  0  0  0  0  0
    2.7311    0.2566    1.1909 O   0  0  0  0  0  0  0  0  0  0  0  0
    1.8244   -0.0593    2.2626 C   0  0  0  0  0  0  0  0  0  0  0  0
    1.9081   -1.5309    2.6202 C   0  0  0  0  0  0  0  0  0  0  0  0
    1.9754   -1.5197   -1.1161 S   0  0  0  0  0  0  0  0  0  0  0  0
    0.1939   -1.4839   -1.3788 C   0  0  0  0  0  0  0  0  0  0  0  0
   -0.7543   -1.6865    0.1729 S   0  0  0  0  0  0  0  0  0  0  0  0
   -2.1286   -0.0995    0.0243 P   0  0  0  0  0  0  0  0  0  0  0  0
   -2.3886    0.6174   -1.7894 S   0  0  0  0  0  0  0  0  0  0  0  0
   -1.6258    0.8149    1.2133 O   0  0  0  0  0  0  0  0  0  0  0  0
   -2.4201    1.8409    1.8470 C   0  0  0  0  0  0  0  0  0  0  0  0
   -2.7203    2.9904    0.9078 C   0  0  0  0  0  0  0  0  0  0  0  0
   -3.4636   -0.6870    0.6623 O   0  0  0  0  0  0  0  0  0  0  0  0
   -4.4233   -1.4466   -0.0964 C   0  0  0  0  0  0  0  0  0  0  0  0
   -5.8027   -1.1699    0.4683 C   0  0  0  0  0  0  0  0  0  0  0  0
    6.6624   -0.1224    0.0152 H   0  0  0  0  0  0  0  0  0  0  0  0
    5.9557    1.4961    0.1554 H   0  0  0  0  0  0  0  0  0  0  0  0
    5.2534    0.1479    1.0548 H   0  0  0  0  0  0  0  0  0  0  0  0
    4.5649   -0.9352   -1.0838 H   0  0  0  0  0  0  0  0  0  0  0  0
    5.3023    0.4114   -1.9979 H   0  0  0  0  0  0  0  0  0  0  0  0
    2.1484    0.5685    3.0952 H   0  0  0  0  0  0  0  0  0  0  0  0
    0.8077    0.2287    1.9746 H   0  0  0  0  0  0  0  0  0  0  0  0
    2.9332   -1.7958    2.8624 H   0  0  0  0  0  0  0  0  0  0  0  0
    1.2743   -1.7212    3.4802 H   0  0  0  0  0  0  0  0  0  0  0  0
    1.5679   -2.1501    1.7934 H   0  0  0  0  0  0  0  0  0  0  0  0
   -0.0265   -2.3285   -2.0263 H   0  0  0  0  0  0  0  0  0  0  0  0
   -0.1043   -0.5400   -1.8427 H   0  0  0  0  0  0  0  0  0  0  0  0
   -3.3386    1.3838    2.2219 H   0  0  0  0  0  0  0  0  0  0  0  0
   -1.7946    2.1639    2.6810 H   0  0  0  0  0  0  0  0  0  0  0  0
   -3.3746    2.6618    0.1019 H   0  0  0  0  0  0  0  0  0  0  0  0
   -3.2048    3.7919    1.4562 H   0  0  0  0  0  0  0  0  0  0  0  0
   -1.7961    3.3596    0.4663 H   0  0  0  0  0  0  0  0  0  0  0  0
   -4.3551   -1.1469   -1.1479 H   0  0  0  0  0  0  0  0  0  0  0  0
   -4.1581   -2.5023   -0.0022 H   0  0  0  0  0  0  0  0  0  0  0  0
   -6.0527   -0.1188    0.3513 H   0  0  0  0  0  0  0  0  0  0  0  0
   -6.5315   -1.7704   -0.0660 H   0  0  0  0  0  0  0  0  0  0  0  0
   -5.8301   -1.4250    1.5237 H   0  0  0  0  0  0  0  0  0  0  0  0
  1  2  1  0  0  0  0
  2  3  1  0  0  0  0
  3  4  2  0  0  0  0
  4  5  2  0  0  0  0
  4  6  2  0  0  0  0
  6  7  1  0  0  0  0
  7  8  1  0  0  0  0
  4  9  1  0  0  0  0
  9 10  1  0  0  0  0
 10 11  1  0  0  0  0
 11 12  1  0  0  0  0
 12 13  2  0  0  0  0
 12 14  2  0  0  0  0
 14 15  1  0  0  0  0
 15 16  1  0  0  0  0
 12 17  2  0  0  0  0
 17 18  1  0  0  0  0
 18 19  1  0  0  0  0
  1 20  1  0  0  0  0
  1 21  1  0  0  0  0
  1 22  1  0  0  0  0
  2 23  1  0  0  0  0
  2 24  1  0  0  0  0
  7 25  1  0  0  0  0
  7 26  1  0  0  0  0
  8 27  1  0  0  0  0
  8 28  1  0  0  0  0
  8 29  1  0  0  0  0
 10 30  1  0  0  0  0
 10 31  1  0  0  0  0
 15 32  1  0  0  0  0
 15 33  1  0  0  0  0
 16 34  1  0  0  0  0
 16 35  1  0  0  0  0
 16 36  1  0  0  0  0
 18 37  1  0  0  0  0
 18 38  1  0  0  0  0
 19 39  1  0  0  0  0
 19 40  1  0  0  0  0
 19 41  1  0  0  0  0
M  END
