 xtb: 6.7.1 (edcfbbe)
          04092507313D

 38 37  0     0  0            999 V2000
    4.1142   -2.7489    1.1534 C   0  0  0  0  0  0  0  0  0  0  0  0
    2.7838   -2.0304    1.2558 C   0  0  0  0  0  0  0  0  0  0  0  0
    2.4662   -1.4914   -0.0415 O   0  0  0  0  0  0  0  0  0  0  0  0
    1.5708   -0.5453   -0.1264 C   0  0  0  0  0  0  0  0  0  0  0  0
    1.0209   -0.0149    0.8275 O   0  0  0  0  0  0  0  0  0  0  0  0
    1.3248   -0.1013   -1.5506 C   0  0  0  0  0  0  0  0  0  0  0  0
    0.2990    1.0216   -1.5615 C   0  0  0  0  0  0  0  0  0  0  0  0
    0.3323    1.5589   -2.5135 H   0  0  0  0  0  0  0  0  0  0  0  0
    0.5435    2.0263   -0.4411 C   0  0  0  0  0  0  0  0  0  0  0  0
   -0.3334    2.4998    0.2437 O   0  0  0  0  0  0  0  0  0  0  0  0
    1.8146    2.3726   -0.3938 O   0  0  0  0  0  0  0  0  0  0  0  0
    2.2093    3.3499    0.5907 C   0  0  0  0  0  0  0  0  0  0  0  0
    1.9472    4.7642    0.0994 C   0  0  0  0  0  0  0  0  0  0  0  0
   -1.4342    0.4604   -1.4864 S   0  0  0  0  0  0  0  0  0  0  0  0
   -1.6488   -0.9023    0.1282 P   0  0  0  0  0  0  0  0  0  0  0  0
   -0.6300   -2.5755    0.0948 S   0  0  0  0  0  0  0  0  0  0  0  0
   -1.6358   -0.1911    1.5360 O   0  0  0  0  0  0  0  0  0  0  0  0
   -2.4929    0.9132    1.8863 C   0  0  0  0  0  0  0  0  0  0  0  0
   -3.2213   -1.1670   -0.0365 O   0  0  0  0  0  0  0  0  0  0  0  0
   -3.7418   -1.9347   -1.1272 C   0  0  0  0  0  0  0  0  0  0  0  0
    4.3573   -3.1874    2.1154 H   0  0  0  0  0  0  0  0  0  0  0  0
    4.0489   -3.5341    0.4069 H   0  0  0  0  0  0  0  0  0  0  0  0
    4.8964   -2.0522    0.8672 H   0  0  0  0  0  0  0  0  0  0  0  0
    2.8091   -1.2075    1.9775 H   0  0  0  0  0  0  0  0  0  0  0  0
    1.9738   -2.7129    1.5336 H   0  0  0  0  0  0  0  0  0  0  0  0
    0.9915   -0.9558   -2.1421 H   0  0  0  0  0  0  0  0  0  0  0  0
    2.2731    0.2506   -1.9609 H   0  0  0  0  0  0  0  0  0  0  0  0
    1.6618    3.1465    1.5155 H   0  0  0  0  0  0  0  0  0  0  0  0
    3.2745    3.1681    0.7346 H   0  0  0  0  0  0  0  0  0  0  0  0
    2.3176    5.4704    0.8351 H   0  0  0  0  0  0  0  0  0  0  0  0
    2.4547    4.9314   -0.8466 H   0  0  0  0  0  0  0  0  0  0  0  0
    0.8798    4.9222   -0.0355 H   0  0  0  0  0  0  0  0  0  0  0  0
   -2.4490    0.9670    2.9709 H   0  0  0  0  0  0  0  0  0  0  0  0
   -3.5090    0.7237    1.5466 H   0  0  0  0  0  0  0  0  0  0  0  0
   -2.0999    1.8272    1.4417 H   0  0  0  0  0  0  0  0  0  0  0  0
   -3.7402   -1.3338   -2.0356 H   0  0  0  0  0  0  0  0  0  0  0  0
   -4.7565   -2.1991   -0.8404 H   0  0  0  0  0  0  0  0  0  0  0  0
   -3.1400   -2.8335   -1.2712 H   0  0  0  0  0  0  0  0  0  0  0  0
  1  2  1  0  0  0  0
  2  3  1  0  0  0  0
  3  4  4  0  0  0  0
  4  5  2  0  0  0  0
  4  6  1  0  0  0  0
  6  7  1  0  0  0  0
  7  8  1  0  0  0  0
  7  9  1  0  0  0  0
  9 10  2  0  0  0  0
  9 11  1  0  0  0  0
 11 12  1  0  0  0  0
 12 13  1  0  0  0  0
  7 14  1  0  0  0  0
 14 15  1  0  0  0  0
 15 16  2  0  0  0  0
 15 17  2  0  0  0  0
 17 18  1  0  0  0  0
 15 19  1  0  0  0  0
 19 20  1  0  0  0  0
  1 21  1  0  0  0  0
  1 22  1  0  0  0  0
  1 23  1  0  0  0  0
  2 24  1  0  0  0  0
  2 25  1  0  0  0  0
  6 26  1  0  0  0  0
  6 27  1  0  0  0  0
 12 28  1  0  0  0  0
 12 29  1  0  0  0  0
 13 30  1  0  0  0  0
 13 31  1  0  0  0  0
 13 32  1  0  0  0  0
 18 33  1  0  0  0  0
 18 34  1  0  0  0  0
 18 35  1  0  0  0  0
 20 36  1  0  0  0  0
 20 37  1  0  0  0  0
 20 38  1  0  0  0  0
M  END
