 xtb: 6.7.1 (edcfbbe)
          04092507313D

 38 37  0     0  0            999 V2000
    4.2414   -1.9971    1.0789 C   0  0  0  0  0  0  0  0  0  0  0  0
    2.7526   -1.8526    0.8302 C   0  0  0  0  0  0  0  0  0  0  0  0
    2.5630   -0.9081   -0.2418 O   0  0  0  0  0  0  0  0  0  0  0  0
    1.4882   -0.9951   -0.9916 C   0  0  0  0  0  0  0  0  0  0  0  0
    0.5997   -1.8118   -0.8353 O   0  0  0  0  0  0  0  0  0  0  0  0
    1.4678    0.0616   -2.0761 C   0  0  0  0  0  0  0  0  0  0  0  0
    0.2777    1.0027   -1.8627 C   0  0  0  0  0  0  0  0  0  0  0  0
    0.2348    1.7305   -2.6771 H   0  0  0  0  0  0  0  0  0  0  0  0
    0.3630    1.7378   -0.5392 C   0  0  0  0  0  0  0  0  0  0  0  0
   -0.5872    1.8003    0.2237 O   0  0  0  0  0  0  0  0  0  0  0  0
    1.5349    2.2472   -0.3186 O   0  0  0  0  0  0  0  0  0  0  0  0
    1.8085    2.8707    0.9579 C   0  0  0  0  0  0  0  0  0  0  0  0
    3.2670    2.6202    1.2879 C   0  0  0  0  0  0  0  0  0  0  0  0
   -1.3333    0.1413   -1.9095 S   0  0  0  0  0  0  0  0  0  0  0  0
   -1.6885   -0.3913    0.1116 P   0  0  0  0  0  0  0  0  0  0  0  0
   -0.5436   -0.6404    1.7015 S   0  0  0  0  0  0  0  0  0  0  0  0
   -3.0354    0.3967    0.4936 O   0  0  0  0  0  0  0  0  0  0  0  0
   -3.1360    1.4874    1.4055 C   0  0  0  0  0  0  0  0  0  0  0  0
   -2.3559   -1.7697   -0.3604 O   0  0  0  0  0  0  0  0  0  0  0  0
   -2.9078   -2.7039    0.5678 C   0  0  0  0  0  0  0  0  0  0  0  0
    4.6710   -1.0367    1.3466 H   0  0  0  0  0  0  0  0  0  0  0  0
    4.3977   -2.6971    1.8926 H   0  0  0  0  0  0  0  0  0  0  0  0
    4.7361   -2.3684    0.1862 H   0  0  0  0  0  0  0  0  0  0  0  0
    2.2253   -1.4698    1.7100 H   0  0  0  0  0  0  0  0  0  0  0  0
    2.2880   -2.8004    0.5411 H   0  0  0  0  0  0  0  0  0  0  0  0
    1.3454   -0.4351   -3.0386 H   0  0  0  0  0  0  0  0  0  0  0  0
    2.3976    0.6280   -2.0461 H   0  0  0  0  0  0  0  0  0  0  0  0
    1.5945    3.9372    0.8539 H   0  0  0  0  0  0  0  0  0  0  0  0
    1.1391    2.4380    1.7071 H   0  0  0  0  0  0  0  0  0  0  0  0
    3.9022    3.0455    0.5174 H   0  0  0  0  0  0  0  0  0  0  0  0
    3.5005    3.0791    2.2426 H   0  0  0  0  0  0  0  0  0  0  0  0
    3.4536    1.5516    1.3505 H   0  0  0  0  0  0  0  0  0  0  0  0
   -4.1496    1.4527    1.7982 H   0  0  0  0  0  0  0  0  0  0  0  0
   -2.9530    2.4231    0.8808 H   0  0  0  0  0  0  0  0  0  0  0  0
   -2.4073    1.3703    2.2097 H   0  0  0  0  0  0  0  0  0  0  0  0
   -3.0270   -3.6322    0.0148 H   0  0  0  0  0  0  0  0  0  0  0  0
   -3.8703   -2.3433    0.9314 H   0  0  0  0  0  0  0  0  0  0  0  0
   -2.2247   -2.8480    1.4082 H   0  0  0  0  0  0  0  0  0  0  0  0
  1  2  1  0  0  0  0
  2  3  1  0  0  0  0
  3  4  4  0  0  0  0
  4  5  2  0  0  0  0
  4  6  1  0  0  0  0
  6  7  1  0  0  0  0
  7  8  1  0  0  0  0
  7  9  1  0  0  0  0
  9 10  2  0  0  0  0
  9 11  4  0  0  0  0
 11 12  1  0  0  0  0
 12 13  1  0  0  0  0
  7 14  1  0  0  0  0
 14 15  1  0  0  0  0
 15 16  2  0  0  0  0
 15 17  1  0  0  0  0
 17 18  1  0  0  0  0
 15 19  1  0  0  0  0
 19 20  1  0  0  0  0
  1 21  1  0  0  0  0
  1 22  1  0  0  0  0
  1 23  1  0  0  0  0
  2 24  1  0  0  0  0
  2 25  1  0  0  0  0
  6 26  1  0  0  0  0
  6 27  1  0  0  0  0
 12 28  1  0  0  0  0
 12 29  1  0  0  0  0
 13 30  1  0  0  0  0
 13 31  1  0  0  0  0
 13 32  1  0  0  0  0
 18 33  1  0  0  0  0
 18 34  1  0  0  0  0
 18 35  1  0  0  0  0
 20 36  1  0  0  0  0
 20 37  1  0  0  0  0
 20 38  1  0  0  0  0
M  END
