 xtb: 6.7.1 (edcfbbe)
          04092505203D

 41 40  0     0  0            999 V2000
    4.6261    0.3269   -1.8222 C   0  0  0  0  0  0  0  0  0  0  0  0
    4.4333    0.8278   -0.4059 C   0  0  0  0  0  0  0  0  0  0  0  0
    3.3879    0.1178    0.2810 O   0  0  0  0  0  0  0  0  0  0  0  0
    1.8597    0.2512   -0.1360 P   0  0  0  0  0  0  0  0  0  0  0  0
    1.3359    2.0740   -0.6060 S   0  0  0  0  0  0  0  0  0  0  0  0
    1.0964   -0.3190    1.1250 O   0  0  0  0  0  0  0  0  0  0  0  0
    1.6087   -1.4436    1.8903 C   0  0  0  0  0  0  0  0  0  0  0  0
    2.3171   -0.9519    3.1339 C   0  0  0  0  0  0  0  0  0  0  0  0
    1.6597   -1.2762   -1.6136 S   0  0  0  0  0  0  0  0  0  0  0  0
   -0.1232   -1.6076   -1.5165 C   0  0  0  0  0  0  0  0  0  0  0  0
   -1.1721   -0.1327   -1.6269 S   0  0  0  0  0  0  0  0  0  0  0  0
   -2.0363   -0.1461    0.3276 P   0  0  0  0  0  0  0  0  0  0  0  0
   -1.8199   -1.7996    1.3469 S   0  0  0  0  0  0  0  0  0  0  0  0
   -3.5285    0.3235    0.0280 O   0  0  0  0  0  0  0  0  0  0  0  0
   -4.4076   -0.2383   -0.9647 C   0  0  0  0  0  0  0  0  0  0  0  0
   -4.5851   -1.7351   -0.8199 C   0  0  0  0  0  0  0  0  0  0  0  0
   -1.5168    1.0838    1.1616 O   0  0  0  0  0  0  0  0  0  0  0  0
   -1.7938    2.4691    0.8335 C   0  0  0  0  0  0  0  0  0  0  0  0
   -1.1250    3.3251    1.8870 C   0  0  0  0  0  0  0  0  0  0  0  0
    3.7485    0.5632   -2.4229 H   0  0  0  0  0  0  0  0  0  0  0  0
    5.4923    0.8127   -2.2599 H   0  0  0  0  0  0  0  0  0  0  0  0
    4.7731   -0.7501   -1.8279 H   0  0  0  0  0  0  0  0  0  0  0  0
    4.1858    1.8941   -0.4042 H   0  0  0  0  0  0  0  0  0  0  0  0
    5.3166    0.6497    0.2088 H   0  0  0  0  0  0  0  0  0  0  0  0
    0.7239   -2.0320    2.1441 H   0  0  0  0  0  0  0  0  0  0  0  0
    2.2770   -2.0303    1.2555 H   0  0  0  0  0  0  0  0  0  0  0  0
    3.1900   -0.3625    2.8653 H   0  0  0  0  0  0  0  0  0  0  0  0
    1.6427   -0.3366    3.7236 H   0  0  0  0  0  0  0  0  0  0  0  0
    2.6276   -1.8089    3.7234 H   0  0  0  0  0  0  0  0  0  0  0  0
   -0.3605   -2.1268   -0.5823 H   0  0  0  0  0  0  0  0  0  0  0  0
   -0.3408   -2.2335   -2.3788 H   0  0  0  0  0  0  0  0  0  0  0  0
   -5.3472    0.2918   -0.7988 H   0  0  0  0  0  0  0  0  0  0  0  0
   -4.0103    0.0122   -1.9522 H   0  0  0  0  0  0  0  0  0  0  0  0
   -4.9087   -1.9836    0.1881 H   0  0  0  0  0  0  0  0  0  0  0  0
   -5.3296   -2.0771   -1.5314 H   0  0  0  0  0  0  0  0  0  0  0  0
   -3.6449   -2.2486   -1.0147 H   0  0  0  0  0  0  0  0  0  0  0  0
   -1.3883    2.6788   -0.1603 H   0  0  0  0  0  0  0  0  0  0  0  0
   -2.8762    2.6078    0.8265 H   0  0  0  0  0  0  0  0  0  0  0  0
   -0.0480    3.1833    1.8471 H   0  0  0  0  0  0  0  0  0  0  0  0
   -1.3529    4.3680    1.6926 H   0  0  0  0  0  0  0  0  0  0  0  0
   -1.4828    3.0500    2.8751 H   0  0  0  0  0  0  0  0  0  0  0  0
  1  2  1  0  0  0  0
  2  3  1  0  0  0  0
  3  4  2  0  0  0  0
  4  5  2  0  0  0  0
  4  6  2  0  0  0  0
  6  7  1  0  0  0  0
  7  8  1  0  0  0  0
  4  9  1  0  0  0  0
  9 10  1  0  0  0  0
 10 11  1  0  0  0  0
 11 12  1  0  0  0  0
 12 13  2  0  0  0  0
 12 14  2  0  0  0  0
 14 15  1  0  0  0  0
 15 16  1  0  0  0  0
 12 17  2  0  0  0  0
 17 18  1  0  0  0  0
 18 19  1  0  0  0  0
  1 20  1  0  0  0  0
  1 21  1  0  0  0  0
  1 22  1  0  0  0  0
  2 23  1  0  0  0  0
  2 24  1  0  0  0  0
  7 25  1  0  0  0  0
  7 26  1  0  0  0  0
  8 27  1  0  0  0  0
  8 28  1  0  0  0  0
  8 29  1  0  0  0  0
 10 30  1  0  0  0  0
 10 31  1  0  0  0  0
 15 32  1  0  0  0  0
 15 33  1  0  0  0  0
 16 34  1  0  0  0  0
 16 35  1  0  0  0  0
 16 36  1  0  0  0  0
 18 37  1  0  0  0  0
 18 38  1  0  0  0  0
 19 39  1  0  0  0  0
 19 40  1  0  0  0  0
 19 41  1  0  0  0  0
M  END
