 xtb: 6.7.1 (edcfbbe)
          04092507313D

 38 37  0     0  0            999 V2000
    3.8637   -3.7809    0.5193 C   0  0  0  0  0  0  0  0  0  0  0  0
    2.8701   -2.6852    0.8494 C   0  0  0  0  0  0  0  0  0  0  0  0
    2.8726   -1.7412   -0.2424 O   0  0  0  0  0  0  0  0  0  0  0  0
    1.8800   -0.8982   -0.3428 C   0  0  0  0  0  0  0  0  0  0  0  0
    0.9583   -0.8421    0.4585 O   0  0  0  0  0  0  0  0  0  0  0  0
    1.9770   -0.0065   -1.5516 C   0  0  0  0  0  0  0  0  0  0  0  0
    0.7981    0.9498   -1.6060 C   0  0  0  0  0  0  0  0  0  0  0  0
    0.8142    1.5385   -2.5268 H   0  0  0  0  0  0  0  0  0  0  0  0
    0.7426    1.9054   -0.4245 C   0  0  0  0  0  0  0  0  0  0  0  0
    1.5875    1.9418    0.4425 O   0  0  0  0  0  0  0  0  0  0  0  0
   -0.3093    2.6883   -0.5012 O   0  0  0  0  0  0  0  0  0  0  0  0
   -0.5118    3.6862    0.5166 C   0  0  0  0  0  0  0  0  0  0  0  0
    0.0911    5.0133    0.0855 C   0  0  0  0  0  0  0  0  0  0  0  0
   -0.8052    0.0671   -1.7442 S   0  0  0  0  0  0  0  0  0  0  0  0
   -1.4333   -0.5284    0.2071 P   0  0  0  0  0  0  0  0  0  0  0  0
   -1.3892   -2.4224    0.7441 S   0  0  0  0  0  0  0  0  0  0  0  0
   -1.0936    0.6012    1.2752 O   0  0  0  0  0  0  0  0  0  0  0  0
   -0.4330    0.3528    2.5163 C   0  0  0  0  0  0  0  0  0  0  0  0
   -2.9759   -0.0771    0.0565 O   0  0  0  0  0  0  0  0  0  0  0  0
   -3.8639   -0.7589   -0.8277 C   0  0  0  0  0  0  0  0  0  0  0  0
    3.5661   -4.2940   -0.3902 H   0  0  0  0  0  0  0  0  0  0  0  0
    4.8522   -3.3549    0.3776 H   0  0  0  0  0  0  0  0  0  0  0  0
    3.8921   -4.4934    1.3368 H   0  0  0  0  0  0  0  0  0  0  0  0
    3.1483   -2.1477    1.7607 H   0  0  0  0  0  0  0  0  0  0  0  0
    1.8538   -3.0742    0.9714 H   0  0  0  0  0  0  0  0  0  0  0  0
    2.0024   -0.6285   -2.4475 H   0  0  0  0  0  0  0  0  0  0  0  0
    2.9141    0.5504   -1.4875 H   0  0  0  0  0  0  0  0  0  0  0  0
   -1.5951    3.7518    0.6244 H   0  0  0  0  0  0  0  0  0  0  0  0
   -0.0625    3.3321    1.4483 H   0  0  0  0  0  0  0  0  0  0  0  0
    1.1714    4.9240   -0.0026 H   0  0  0  0  0  0  0  0  0  0  0  0
   -0.3209    5.3159   -0.8730 H   0  0  0  0  0  0  0  0  0  0  0  0
   -0.1411    5.7678    0.8298 H   0  0  0  0  0  0  0  0  0  0  0  0
    0.5841    0.7424    2.4561 H   0  0  0  0  0  0  0  0  0  0  0  0
   -0.4037   -0.7177    2.7262 H   0  0  0  0  0  0  0  0  0  0  0  0
   -1.0058    0.8741    3.2805 H   0  0  0  0  0  0  0  0  0  0  0  0
   -4.8565   -0.3807   -0.5964 H   0  0  0  0  0  0  0  0  0  0  0  0
   -3.8152   -1.8355   -0.6504 H   0  0  0  0  0  0  0  0  0  0  0  0
   -3.6023   -0.5436   -1.8649 H   0  0  0  0  0  0  0  0  0  0  0  0
  1  2  1  0  0  0  0
  2  3  1  0  0  0  0
  3  4  4  0  0  0  0
  4  5  2  0  0  0  0
  4  6  1  0  0  0  0
  6  7  1  0  0  0  0
  7  8  1  0  0  0  0
  7  9  1  0  0  0  0
  9 10  2  0  0  0  0
  9 11  1  0  0  0  0
 11 12  1  0  0  0  0
 12 13  1  0  0  0  0
  7 14  1  0  0  0  0
 14 15  1  0  0  0  0
 15 16  2  0  0  0  0
 15 17  1  0  0  0  0
 17 18  1  0  0  0  0
 15 19  1  0  0  0  0
 19 20  1  0  0  0  0
  1 21  1  0  0  0  0
  1 22  1  0  0  0  0
  1 23  1  0  0  0  0
  2 24  1  0  0  0  0
  2 25  1  0  0  0  0
  6 26  1  0  0  0  0
  6 27  1  0  0  0  0
 12 28  1  0  0  0  0
 12 29  1  0  0  0  0
 13 30  1  0  0  0  0
 13 31  1  0  0  0  0
 13 32  1  0  0  0  0
 18 33  1  0  0  0  0
 18 34  1  0  0  0  0
 18 35  1  0  0  0  0
 20 36  1  0  0  0  0
 20 37  1  0  0  0  0
 20 38  1  0  0  0  0
M  END
