 xtb: 6.7.1 (edcfbbe)
          04092505213D

 41 40  0     0  0            999 V2000
    3.5086   -0.5334   -3.0054 C   0  0  0  0  0  0  0  0  0  0  0  0
    4.0792    0.2677   -1.8528 C   0  0  0  0  0  0  0  0  0  0  0  0
    3.5977   -0.2076   -0.5880 O   0  0  0  0  0  0  0  0  0  0  0  0
    2.0808   -0.0277   -0.1330 P   0  0  0  0  0  0  0  0  0  0  0  0
    1.3706    1.7275   -0.6499 S   0  0  0  0  0  0  0  0  0  0  0  0
    2.1601   -0.3632    1.4109 O   0  0  0  0  0  0  0  0  0  0  0  0
    2.3804    0.6540    2.4093 C   0  0  0  0  0  0  0  0  0  0  0  0
    3.7648    1.2557    2.3060 C   0  0  0  0  0  0  0  0  0  0  0  0
    1.2321   -1.8424   -0.8306 S   0  0  0  0  0  0  0  0  0  0  0  0
    0.0238   -2.3171    0.4456 C   0  0  0  0  0  0  0  0  0  0  0  0
   -1.6938   -2.1992   -0.1137 S   0  0  0  0  0  0  0  0  0  0  0  0
   -1.9742   -0.1236    0.1518 P   0  0  0  0  0  0  0  0  0  0  0  0
   -1.0727    0.5806    1.7521 S   0  0  0  0  0  0  0  0  0  0  0  0
   -3.5496    0.0522    0.1522 O   0  0  0  0  0  0  0  0  0  0  0  0
   -4.3447   -0.2466    1.3183 C   0  0  0  0  0  0  0  0  0  0  0  0
   -5.6523    0.5097    1.1996 C   0  0  0  0  0  0  0  0  0  0  0  0
   -1.5686    0.4421   -1.2646 O   0  0  0  0  0  0  0  0  0  0  0  0
   -2.1776    1.5877   -1.9057 C   0  0  0  0  0  0  0  0  0  0  0  0
   -2.1238    2.8295   -1.0425 C   0  0  0  0  0  0  0  0  0  0  0  0
    3.9457   -0.1915   -3.9380 H   0  0  0  0  0  0  0  0  0  0  0  0
    3.7166   -1.5917   -2.8710 H   0  0  0  0  0  0  0  0  0  0  0  0
    2.4275   -0.3953   -3.0479 H   0  0  0  0  0  0  0  0  0  0  0  0
    3.8122    1.3257   -1.9507 H   0  0  0  0  0  0  0  0  0  0  0  0
    5.1624    0.1616   -1.7818 H   0  0  0  0  0  0  0  0  0  0  0  0
    1.6069    1.4214    2.2996 H   0  0  0  0  0  0  0  0  0  0  0  0
    2.2323    0.1258    3.3523 H   0  0  0  0  0  0  0  0  0  0  0  0
    3.9223    1.9334    3.1391 H   0  0  0  0  0  0  0  0  0  0  0  0
    4.5166    0.4711    2.3259 H   0  0  0  0  0  0  0  0  0  0  0  0
    3.8584    1.8121    1.3742 H   0  0  0  0  0  0  0  0  0  0  0  0
    0.1599   -1.6894    1.3270 H   0  0  0  0  0  0  0  0  0  0  0  0
    0.2017   -3.3650    0.6707 H   0  0  0  0  0  0  0  0  0  0  0  0
   -4.5075   -1.3266    1.3457 H   0  0  0  0  0  0  0  0  0  0  0  0
   -3.7841    0.0554    2.2096 H   0  0  0  0  0  0  0  0  0  0  0  0
   -6.2773    0.2720    2.0540 H   0  0  0  0  0  0  0  0  0  0  0  0
   -5.4687    1.5804    1.1788 H   0  0  0  0  0  0  0  0  0  0  0  0
   -6.1657    0.2217    0.2869 H   0  0  0  0  0  0  0  0  0  0  0  0
   -1.5861    1.7096   -2.8142 H   0  0  0  0  0  0  0  0  0  0  0  0
   -3.2072    1.3230   -2.1543 H   0  0  0  0  0  0  0  0  0  0  0  0
   -2.5623    3.6634   -1.5810 H   0  0  0  0  0  0  0  0  0  0  0  0
   -2.6773    2.6681   -0.1179 H   0  0  0  0  0  0  0  0  0  0  0  0
   -1.0916    3.0667   -0.7913 H   0  0  0  0  0  0  0  0  0  0  0  0
  1  2  1  0  0  0  0
  2  3  1  0  0  0  0
  3  4  2  0  0  0  0
  4  5  2  0  0  0  0
  4  6  2  0  0  0  0
  6  7  1  0  0  0  0
  7  8  1  0  0  0  0
  4  9  1  0  0  0  0
  9 10  1  0  0  0  0
 10 11  1  0  0  0  0
 11 12  1  0  0  0  0
 12 13  2  0  0  0  0
 12 14  2  0  0  0  0
 14 15  1  0  0  0  0
 15 16  1  0  0  0  0
 12 17  2  0  0  0  0
 17 18  1  0  0  0  0
 18 19  1  0  0  0  0
  1 20  1  0  0  0  0
  1 21  1  0  0  0  0
  1 22  1  0  0  0  0
  2 23  1  0  0  0  0
  2 24  1  0  0  0  0
  7 25  1  0  0  0  0
  7 26  1  0  0  0  0
  8 27  1  0  0  0  0
  8 28  1  0  0  0  0
  8 29  1  0  0  0  0
 10 30  1  0  0  0  0
 10 31  1  0  0  0  0
 15 32  1  0  0  0  0
 15 33  1  0  0  0  0
 16 34  1  0  0  0  0
 16 35  1  0  0  0  0
 16 36  1  0  0  0  0
 18 37  1  0  0  0  0
 18 38  1  0  0  0  0
 19 39  1  0  0  0  0
 19 40  1  0  0  0  0
 19 41  1  0  0  0  0
M  END
