 xtb: 6.7.1 (edcfbbe)
          04092507313D

 38 37  0     0  0            999 V2000
    3.3114   -1.7743    1.4742 C   0  0  0  0  0  0  0  0  0  0  0  0
    3.0873   -2.2949    0.0644 C   0  0  0  0  0  0  0  0  0  0  0  0
    2.7663   -1.2163   -0.8361 O   0  0  0  0  0  0  0  0  0  0  0  0
    1.5117   -0.9902   -1.1553 C   0  0  0  0  0  0  0  0  0  0  0  0
    0.5655   -1.6250   -0.7274 O   0  0  0  0  0  0  0  0  0  0  0  0
    1.3860    0.1379   -2.1569 C   0  0  0  0  0  0  0  0  0  0  0  0
    0.2296    1.0805   -1.8239 C   0  0  0  0  0  0  0  0  0  0  0  0
    0.1155    1.8089   -2.6321 H   0  0  0  0  0  0  0  0  0  0  0  0
    0.4357    1.8378   -0.5249 C   0  0  0  0  0  0  0  0  0  0  0  0
   -0.4434    1.9291    0.3121 O   0  0  0  0  0  0  0  0  0  0  0  0
    1.6215    2.3690   -0.4409 O   0  0  0  0  0  0  0  0  0  0  0  0
    1.9846    3.0818    0.7636 C   0  0  0  0  0  0  0  0  0  0  0  0
    2.6283    2.1349    1.7617 C   0  0  0  0  0  0  0  0  0  0  0  0
   -1.3925    0.2502   -1.7215 S   0  0  0  0  0  0  0  0  0  0  0  0
   -1.5316   -0.3276    0.3168 P   0  0  0  0  0  0  0  0  0  0  0  0
   -0.2888   -0.5342    1.8208 S   0  0  0  0  0  0  0  0  0  0  0  0
   -2.7618    0.5198    0.9111 O   0  0  0  0  0  0  0  0  0  0  0  0
   -3.9066    0.8735    0.1251 C   0  0  0  0  0  0  0  0  0  0  0  0
   -2.2320   -1.7274   -0.1000 O   0  0  0  0  0  0  0  0  0  0  0  0
   -2.5607   -2.7008    0.8887 C   0  0  0  0  0  0  0  0  0  0  0  0
    4.0904   -1.0179    1.4768 H   0  0  0  0  0  0  0  0  0  0  0  0
    2.3921   -1.3427    1.8672 H   0  0  0  0  0  0  0  0  0  0  0  0
    3.6096   -2.5976    2.1146 H   0  0  0  0  0  0  0  0  0  0  0  0
    2.2698   -3.0208    0.0455 H   0  0  0  0  0  0  0  0  0  0  0  0
    3.9979   -2.7339   -0.3455 H   0  0  0  0  0  0  0  0  0  0  0  0
    1.1936   -0.3131   -3.1326 H   0  0  0  0  0  0  0  0  0  0  0  0
    2.3235    0.6929   -2.1871 H   0  0  0  0  0  0  0  0  0  0  0  0
    2.6860    3.8433    0.4227 H   0  0  0  0  0  0  0  0  0  0  0  0
    1.0868    3.5411    1.1844 H   0  0  0  0  0  0  0  0  0  0  0  0
    2.9393    2.6933    2.6380 H   0  0  0  0  0  0  0  0  0  0  0  0
    1.9168    1.3696    2.0695 H   0  0  0  0  0  0  0  0  0  0  0  0
    3.4936    1.6525    1.3161 H   0  0  0  0  0  0  0  0  0  0  0  0
   -4.7160    1.0208    0.8364 H   0  0  0  0  0  0  0  0  0  0  0  0
   -4.1522    0.0766   -0.5791 H   0  0  0  0  0  0  0  0  0  0  0  0
   -3.7007    1.7963   -0.4164 H   0  0  0  0  0  0  0  0  0  0  0  0
   -1.6548   -3.0346    1.3974 H   0  0  0  0  0  0  0  0  0  0  0  0
   -3.0199   -3.5236    0.3466 H   0  0  0  0  0  0  0  0  0  0  0  0
   -3.2538   -2.2850    1.6229 H   0  0  0  0  0  0  0  0  0  0  0  0
  1  2  1  0  0  0  0
  2  3  1  0  0  0  0
  3  4  4  0  0  0  0
  4  5  2  0  0  0  0
  4  6  1  0  0  0  0
  6  7  1  0  0  0  0
  7  8  1  0  0  0  0
  7  9  1  0  0  0  0
  9 10  2  0  0  0  0
  9 11  4  0  0  0  0
 11 12  1  0  0  0  0
 12 13  1  0  0  0  0
  7 14  1  0  0  0  0
 14 15  1  0  0  0  0
 15 16  2  0  0  0  0
 15 17  1  0  0  0  0
 17 18  1  0  0  0  0
 15 19  1  0  0  0  0
 19 20  1  0  0  0  0
  1 21  1  0  0  0  0
  1 22  1  0  0  0  0
  1 23  1  0  0  0  0
  2 24  1  0  0  0  0
  2 25  1  0  0  0  0
  6 26  1  0  0  0  0
  6 27  1  0  0  0  0
 12 28  1  0  0  0  0
 12 29  1  0  0  0  0
 13 30  1  0  0  0  0
 13 31  1  0  0  0  0
 13 32  1  0  0  0  0
 18 33  1  0  0  0  0
 18 34  1  0  0  0  0
 18 35  1  0  0  0  0
 20 36  1  0  0  0  0
 20 37  1  0  0  0  0
 20 38  1  0  0  0  0
M  END
