 xtb: 6.7.1 (edcfbbe)
          04092507313D

 38 37  0     0  0            999 V2000
    1.8404   -3.7261   -2.1110 C   0  0  0  0  0  0  0  0  0  0  0  0
    3.0954   -2.9488   -1.7473 C   0  0  0  0  0  0  0  0  0  0  0  0
    2.7588   -1.6235   -1.2958 O   0  0  0  0  0  0  0  0  0  0  0  0
    2.4058   -1.4604   -0.0360 C   0  0  0  0  0  0  0  0  0  0  0  0
    2.4157   -2.3331    0.8021 O   0  0  0  0  0  0  0  0  0  0  0  0
    1.9892   -0.0278    0.2468 C   0  0  0  0  0  0  0  0  0  0  0  0
    1.0333    0.4814   -0.8317 C   0  0  0  0  0  0  0  0  0  0  0  0
    1.5525    0.5443   -1.7913 H   0  0  0  0  0  0  0  0  0  0  0  0
    0.4590    1.8356   -0.4666 C   0  0  0  0  0  0  0  0  0  0  0  0
   -0.7365    2.0204   -0.3466 O   0  0  0  0  0  0  0  0  0  0  0  0
    1.3852    2.7367   -0.3101 O   0  0  0  0  0  0  0  0  0  0  0  0
    0.9935    4.0534    0.1404 C   0  0  0  0  0  0  0  0  0  0  0  0
    0.9406    4.0985    1.6584 C   0  0  0  0  0  0  0  0  0  0  0  0
   -0.3566   -0.6573   -1.1265 S   0  0  0  0  0  0  0  0  0  0  0  0
   -1.6314   -0.2188    0.5327 P   0  0  0  0  0  0  0  0  0  0  0  0
   -0.9867    0.5678    2.2082 S   0  0  0  0  0  0  0  0  0  0  0  0
   -3.0127    0.3261   -0.0578 O   0  0  0  0  0  0  0  0  0  0  0  0
   -3.4616    1.6787   -0.1302 C   0  0  0  0  0  0  0  0  0  0  0  0
   -2.0937   -1.7029    0.8931 O   0  0  0  0  0  0  0  0  0  0  0  0
   -2.7215   -2.5874   -0.0482 C   0  0  0  0  0  0  0  0  0  0  0  0
    1.2557   -3.1713   -2.8398 H   0  0  0  0  0  0  0  0  0  0  0  0
    2.1193   -4.6889   -2.5255 H   0  0  0  0  0  0  0  0  0  0  0  0
    1.2318   -3.8850   -1.2236 H   0  0  0  0  0  0  0  0  0  0  0  0
    3.7303   -2.7848   -2.6177 H   0  0  0  0  0  0  0  0  0  0  0  0
    3.6523   -3.4585   -0.9560 H   0  0  0  0  0  0  0  0  0  0  0  0
    2.8778    0.6060    0.2601 H   0  0  0  0  0  0  0  0  0  0  0  0
    1.5213   -0.0016    1.2339 H   0  0  0  0  0  0  0  0  0  0  0  0
    1.7651    4.7140   -0.2541 H   0  0  0  0  0  0  0  0  0  0  0  0
    0.0195    4.2956   -0.2916 H   0  0  0  0  0  0  0  0  0  0  0  0
    0.2217    3.3717    2.0344 H   0  0  0  0  0  0  0  0  0  0  0  0
    1.9154    3.8677    2.0781 H   0  0  0  0  0  0  0  0  0  0  0  0
    0.6387    5.0900    1.9785 H   0  0  0  0  0  0  0  0  0  0  0  0
   -3.0856    2.2480    0.7196 H   0  0  0  0  0  0  0  0  0  0  0  0
   -4.5479    1.6250   -0.1046 H   0  0  0  0  0  0  0  0  0  0  0  0
   -3.1154    2.1315   -1.0571 H   0  0  0  0  0  0  0  0  0  0  0  0
   -2.7941   -3.5436    0.4637 H   0  0  0  0  0  0  0  0  0  0  0  0
   -2.1077   -2.6780   -0.9451 H   0  0  0  0  0  0  0  0  0  0  0  0
   -3.7089   -2.2103   -0.3082 H   0  0  0  0  0  0  0  0  0  0  0  0
  1  2  1  0  0  0  0
  2  3  1  0  0  0  0
  3  4  1  0  0  0  0
  4  5  2  0  0  0  0
  4  6  1  0  0  0  0
  6  7  1  0  0  0  0
  7  8  1  0  0  0  0
  7  9  1  0  0  0  0
  9 10  2  0  0  0  0
  9 11  4  0  0  0  0
 11 12  1  0  0  0  0
 12 13  1  0  0  0  0
  7 14  1  0  0  0  0
 14 15  1  0  0  0  0
 15 16  2  0  0  0  0
 15 17  2  0  0  0  0
 17 18  1  0  0  0  0
 15 19  1  0  0  0  0
 19 20  1  0  0  0  0
  1 21  1  0  0  0  0
  1 22  1  0  0  0  0
  1 23  1  0  0  0  0
  2 24  1  0  0  0  0
  2 25  1  0  0  0  0
  6 26  1  0  0  0  0
  6 27  1  0  0  0  0
 12 28  1  0  0  0  0
 12 29  1  0  0  0  0
 13 30  1  0  0  0  0
 13 31  1  0  0  0  0
 13 32  1  0  0  0  0
 18 33  1  0  0  0  0
 18 34  1  0  0  0  0
 18 35  1  0  0  0  0
 20 36  1  0  0  0  0
 20 37  1  0  0  0  0
 20 38  1  0  0  0  0
M  END
