 xtb: 6.7.1 (edcfbbe)
          04092505213D

 41 40  0     0  0            999 V2000
    4.4529    1.0613   -1.6259 C   0  0  0  0  0  0  0  0  0  0  0  0
    3.2070    0.3733   -2.1408 C   0  0  0  0  0  0  0  0  0  0  0  0
    2.7104   -0.5951   -1.1912 O   0  0  0  0  0  0  0  0  0  0  0  0
    2.0413   -0.1695    0.1719 P   0  0  0  0  0  0  0  0  0  0  0  0
    1.1884    1.6042    0.2114 S   0  0  0  0  0  0  0  0  0  0  0  0
    3.2384   -0.2843    1.2082 O   0  0  0  0  0  0  0  0  0  0  0  0
    3.1070    0.1163    2.5862 C   0  0  0  0  0  0  0  0  0  0  0  0
    4.5004    0.2929    3.1541 C   0  0  0  0  0  0  0  0  0  0  0  0
    0.9513   -1.9292    0.6078 S   0  0  0  0  0  0  0  0  0  0  0  0
    0.0388   -2.1559   -0.9592 C   0  0  0  0  0  0  0  0  0  0  0  0
   -0.5474   -0.6258   -1.7284 S   0  0  0  0  0  0  0  0  0  0  0  0
   -2.0688   -0.0875   -0.3541 P   0  0  0  0  0  0  0  0  0  0  0  0
   -1.7529   -0.0161    1.5832 S   0  0  0  0  0  0  0  0  0  0  0  0
   -3.1159   -1.1885   -0.8001 O   0  0  0  0  0  0  0  0  0  0  0  0
   -4.2473   -1.5545    0.0157 C   0  0  0  0  0  0  0  0  0  0  0  0
   -5.2922   -0.4594    0.0439 C   0  0  0  0  0  0  0  0  0  0  0  0
   -2.6331    1.2340   -1.0238 O   0  0  0  0  0  0  0  0  0  0  0  0
   -2.2698    2.5775   -0.6459 C   0  0  0  0  0  0  0  0  0  0  0  0
   -3.2891    3.1521    0.3184 C   0  0  0  0  0  0  0  0  0  0  0  0
    4.2067    1.6526   -0.7445 H   0  0  0  0  0  0  0  0  0  0  0  0
    5.2042    0.3242   -1.3556 H   0  0  0  0  0  0  0  0  0  0  0  0
    4.8468    1.7189   -2.3942 H   0  0  0  0  0  0  0  0  0  0  0  0
    3.4049   -0.2176   -3.0355 H   0  0  0  0  0  0  0  0  0  0  0  0
    2.4134    1.1001   -2.3418 H   0  0  0  0  0  0  0  0  0  0  0  0
    2.5324    1.0485    2.6272 H   0  0  0  0  0  0  0  0  0  0  0  0
    2.5526   -0.6628    3.1174 H   0  0  0  0  0  0  0  0  0  0  0  0
    5.0572   -0.6346    3.0583 H   0  0  0  0  0  0  0  0  0  0  0  0
    5.0266    1.0780    2.6186 H   0  0  0  0  0  0  0  0  0  0  0  0
    4.4246    0.5623    4.2024 H   0  0  0  0  0  0  0  0  0  0  0  0
   -0.8046   -2.8038   -0.7287 H   0  0  0  0  0  0  0  0  0  0  0  0
    0.7045   -2.6187   -1.6841 H   0  0  0  0  0  0  0  0  0  0  0  0
   -4.6249   -2.4642   -0.4533 H   0  0  0  0  0  0  0  0  0  0  0  0
   -3.8893   -1.7729    1.0271 H   0  0  0  0  0  0  0  0  0  0  0  0
   -6.1703   -0.8120    0.5757 H   0  0  0  0  0  0  0  0  0  0  0  0
   -4.8941    0.4149    0.5562 H   0  0  0  0  0  0  0  0  0  0  0  0
   -5.5682   -0.1786   -0.9691 H   0  0  0  0  0  0  0  0  0  0  0  0
   -1.2702    2.5812   -0.2033 H   0  0  0  0  0  0  0  0  0  0  0  0
   -2.2505    3.1319   -1.5858 H   0  0  0  0  0  0  0  0  0  0  0  0
   -3.2781    2.5912    1.2509 H   0  0  0  0  0  0  0  0  0  0  0  0
   -3.0332    4.1855    0.5286 H   0  0  0  0  0  0  0  0  0  0  0  0
   -4.2841    3.1070   -0.1159 H   0  0  0  0  0  0  0  0  0  0  0  0
  1  2  1  0  0  0  0
  2  3  1  0  0  0  0
  3  4  2  0  0  0  0
  4  5  2  0  0  0  0
  4  6  2  0  0  0  0
  6  7  1  0  0  0  0
  7  8  1  0  0  0  0
  4  9  1  0  0  0  0
  9 10  1  0  0  0  0
 10 11  1  0  0  0  0
 11 12  1  0  0  0  0
 12 13  2  0  0  0  0
 12 14  2  0  0  0  0
 14 15  1  0  0  0  0
 15 16  1  0  0  0  0
 12 17  2  0  0  0  0
 17 18  1  0  0  0  0
 18 19  1  0  0  0  0
  1 20  1  0  0  0  0
  1 21  1  0  0  0  0
  1 22  1  0  0  0  0
  2 23  1  0  0  0  0
  2 24  1  0  0  0  0
  7 25  1  0  0  0  0
  7 26  1  0  0  0  0
  8 27  1  0  0  0  0
  8 28  1  0  0  0  0
  8 29  1  0  0  0  0
 10 30  1  0  0  0  0
 10 31  1  0  0  0  0
 15 32  1  0  0  0  0
 15 33  1  0  0  0  0
 16 34  1  0  0  0  0
 16 35  1  0  0  0  0
 16 36  1  0  0  0  0
 18 37  1  0  0  0  0
 18 38  1  0  0  0  0
 19 39  1  0  0  0  0
 19 40  1  0  0  0  0
 19 41  1  0  0  0  0
M  END
