 xtb: 6.7.1 (edcfbbe)
          04092505213D

 41 40  0     0  0            999 V2000
    4.2914    0.8303   -0.7890 C   0  0  0  0  0  0  0  0  0  0  0  0
    2.9584    1.5422   -0.6919 C   0  0  0  0  0  0  0  0  0  0  0  0
    2.1916    1.1519    0.4684 O   0  0  0  0  0  0  0  0  0  0  0  0
    1.7491   -0.3357    0.8189 P   0  0  0  0  0  0  0  0  0  0  0  0
    0.2931   -0.3688    2.1221 S   0  0  0  0  0  0  0  0  0  0  0  0
    3.0575   -1.1084    1.3244 O   0  0  0  0  0  0  0  0  0  0  0  0
    3.3988   -1.2070    2.7160 C   0  0  0  0  0  0  0  0  0  0  0  0
    3.9060    0.1131    3.2615 C   0  0  0  0  0  0  0  0  0  0  0  0
    1.5199   -1.3444   -1.0264 S   0  0  0  0  0  0  0  0  0  0  0  0
   -0.1598   -2.0005   -0.8274 C   0  0  0  0  0  0  0  0  0  0  0  0
   -1.3283   -1.3252   -2.0486 S   0  0  0  0  0  0  0  0  0  0  0  0
   -2.0166    0.3730   -1.0136 P   0  0  0  0  0  0  0  0  0  0  0  0
   -3.3675    1.4480   -1.9333 S   0  0  0  0  0  0  0  0  0  0  0  0
   -0.6304    1.1047   -0.7106 O   0  0  0  0  0  0  0  0  0  0  0  0
   -0.6253    2.5238   -0.4347 C   0  0  0  0  0  0  0  0  0  0  0  0
   -1.3081    2.8551    0.8748 C   0  0  0  0  0  0  0  0  0  0  0  0
   -2.4377   -0.1444    0.4332 O   0  0  0  0  0  0  0  0  0  0  0  0
   -3.7846   -0.5371    0.7395 C   0  0  0  0  0  0  0  0  0  0  0  0
   -4.1469   -1.8636    0.1017 C   0  0  0  0  0  0  0  0  0  0  0  0
    4.8803    1.0041    0.1076 H   0  0  0  0  0  0  0  0  0  0  0  0
    4.1402   -0.2409   -0.9121 H   0  0  0  0  0  0  0  0  0  0  0  0
    4.8316    1.2113   -1.6503 H   0  0  0  0  0  0  0  0  0  0  0  0
    2.3537    1.3506   -1.5832 H   0  0  0  0  0  0  0  0  0  0  0  0
    3.0907    2.6178   -0.5586 H   0  0  0  0  0  0  0  0  0  0  0  0
    2.5145   -1.5354    3.2716 H   0  0  0  0  0  0  0  0  0  0  0  0
    4.1656   -1.9821    2.7488 H   0  0  0  0  0  0  0  0  0  0  0  0
    4.7818    0.4419    2.7085 H   0  0  0  0  0  0  0  0  0  0  0  0
    3.1263    0.8695    3.1726 H   0  0  0  0  0  0  0  0  0  0  0  0
    4.1667   -0.0046    4.3086 H   0  0  0  0  0  0  0  0  0  0  0  0
   -0.5134   -1.7753    0.1819 H   0  0  0  0  0  0  0  0  0  0  0  0
   -0.1240   -3.0701   -1.0139 H   0  0  0  0  0  0  0  0  0  0  0  0
    0.4321    2.7853   -0.4092 H   0  0  0  0  0  0  0  0  0  0  0  0
   -1.1191    3.0327   -1.2686 H   0  0  0  0  0  0  0  0  0  0  0  0
   -2.3744    2.6445    0.8030 H   0  0  0  0  0  0  0  0  0  0  0  0
   -0.8867    2.2570    1.6796 H   0  0  0  0  0  0  0  0  0  0  0  0
   -1.1692    3.9087    1.0952 H   0  0  0  0  0  0  0  0  0  0  0  0
   -3.7995   -0.5933    1.8290 H   0  0  0  0  0  0  0  0  0  0  0  0
   -4.4615    0.2519    0.3953 H   0  0  0  0  0  0  0  0  0  0  0  0
   -3.4410   -2.6344    0.4005 H   0  0  0  0  0  0  0  0  0  0  0  0
   -5.1449   -2.1504    0.4173 H   0  0  0  0  0  0  0  0  0  0  0  0
   -4.1325   -1.7708   -0.9840 H   0  0  0  0  0  0  0  0  0  0  0  0
  1  2  1  0  0  0  0
  2  3  1  0  0  0  0
  3  4  2  0  0  0  0
  4  5  2  0  0  0  0
  4  6  1  0  0  0  0
  6  7  1  0  0  0  0
  7  8  1  0  0  0  0
  4  9  1  0  0  0  0
  9 10  1  0  0  0  0
 10 11  1  0  0  0  0
 11 12  1  0  0  0  0
 12 13  2  0  0  0  0
 12 14  1  0  0  0  0
 14 15  1  0  0  0  0
 15 16  1  0  0  0  0
 12 17  2  0  0  0  0
 17 18  1  0  0  0  0
 18 19  1  0  0  0  0
  1 20  1  0  0  0  0
  1 21  1  0  0  0  0
  1 22  1  0  0  0  0
  2 23  1  0  0  0  0
  2 24  1  0  0  0  0
  7 25  1  0  0  0  0
  7 26  1  0  0  0  0
  8 27  1  0  0  0  0
  8 28  1  0  0  0  0
  8 29  1  0  0  0  0
 10 30  1  0  0  0  0
 10 31  1  0  0  0  0
 15 32  1  0  0  0  0
 15 33  1  0  0  0  0
 16 34  1  0  0  0  0
 16 35  1  0  0  0  0
 16 36  1  0  0  0  0
 18 37  1  0  0  0  0
 18 38  1  0  0  0  0
 19 39  1  0  0  0  0
 19 40  1  0  0  0  0
 19 41  1  0  0  0  0
M  END
