 xtb: 6.7.1 (edcfbbe)
          04092505203D

 41 40  0     0  0            999 V2000
    4.6469   -1.3958   -0.8828 C   0  0  0  0  0  0  0  0  0  0  0  0
    4.6196    0.0727   -0.5112 C   0  0  0  0  0  0  0  0  0  0  0  0
    3.4669    0.4092    0.2800 O   0  0  0  0  0  0  0  0  0  0  0  0
    1.9868    0.3937   -0.3101 P   0  0  0  0  0  0  0  0  0  0  0  0
    1.8821    1.0353   -2.1653 S   0  0  0  0  0  0  0  0  0  0  0  0
    1.2309    1.2183    0.8089 O   0  0  0  0  0  0  0  0  0  0  0  0
    1.3160    2.6579    0.8643 C   0  0  0  0  0  0  0  0  0  0  0  0
    0.5050    3.1161    2.0572 C   0  0  0  0  0  0  0  0  0  0  0  0
    1.2829   -1.5373    0.0991 S   0  0  0  0  0  0  0  0  0  0  0  0
    0.0493   -1.7218   -1.2359 C   0  0  0  0  0  0  0  0  0  0  0  0
   -1.6122   -2.0338   -0.6099 S   0  0  0  0  0  0  0  0  0  0  0  0
   -2.0099   -0.0939    0.1721 P   0  0  0  0  0  0  0  0  0  0  0  0
   -1.5018    1.4183   -0.9629 S   0  0  0  0  0  0  0  0  0  0  0  0
   -1.2938    0.0141    1.5696 O   0  0  0  0  0  0  0  0  0  0  0  0
   -1.4727   -0.9564    2.6346 C   0  0  0  0  0  0  0  0  0  0  0  0
   -0.2966   -0.8277    3.5794 C   0  0  0  0  0  0  0  0  0  0  0  0
   -3.5325   -0.2092    0.6148 O   0  0  0  0  0  0  0  0  0  0  0  0
   -4.6054   -0.7176   -0.2004 C   0  0  0  0  0  0  0  0  0  0  0  0
   -4.7092   -0.0177   -1.5389 C   0  0  0  0  0  0  0  0  0  0  0  0
    5.5910   -1.6251   -1.3662 H   0  0  0  0  0  0  0  0  0  0  0  0
    4.5339   -2.0131    0.0047 H   0  0  0  0  0  0  0  0  0  0  0  0
    3.8343   -1.6175   -1.5733 H   0  0  0  0  0  0  0  0  0  0  0  0
    4.6133    0.6965   -1.4108 H   0  0  0  0  0  0  0  0  0  0  0  0
    5.4619    0.3448    0.1262 H   0  0  0  0  0  0  0  0  0  0  0  0
    2.3681    2.9419    0.9545 H   0  0  0  0  0  0  0  0  0  0  0  0
    0.9130    3.0592   -0.0722 H   0  0  0  0  0  0  0  0  0  0  0  0
    0.9200    2.6995    2.9703 H   0  0  0  0  0  0  0  0  0  0  0  0
    0.5242    4.1998    2.1075 H   0  0  0  0  0  0  0  0  0  0  0  0
   -0.5227    2.7781    1.9477 H   0  0  0  0  0  0  0  0  0  0  0  0
    0.3166   -2.5950   -1.8253 H   0  0  0  0  0  0  0  0  0  0  0  0
    0.0561   -0.8143   -1.8466 H   0  0  0  0  0  0  0  0  0  0  0  0
   -2.4184   -0.7313    3.1307 H   0  0  0  0  0  0  0  0  0  0  0  0
   -1.5214   -1.9566    2.1936 H   0  0  0  0  0  0  0  0  0  0  0  0
    0.6323   -1.0178    3.0470 H   0  0  0  0  0  0  0  0  0  0  0  0
   -0.2605    0.1745    3.9967 H   0  0  0  0  0  0  0  0  0  0  0  0
   -0.4045   -1.5502    4.3818 H   0  0  0  0  0  0  0  0  0  0  0  0
   -4.4486   -1.7911   -0.3361 H   0  0  0  0  0  0  0  0  0  0  0  0
   -5.4934   -0.5448    0.4101 H   0  0  0  0  0  0  0  0  0  0  0  0
   -5.5774   -0.3885   -2.0740 H   0  0  0  0  0  0  0  0  0  0  0  0
   -4.8022    1.0570   -1.4001 H   0  0  0  0  0  0  0  0  0  0  0  0
   -3.8172   -0.2091   -2.1341 H   0  0  0  0  0  0  0  0  0  0  0  0
  1  2  1  0  0  0  0
  2  3  1  0  0  0  0
  3  4  2  0  0  0  0
  4  5  2  0  0  0  0
  4  6  2  0  0  0  0
  6  7  1  0  0  0  0
  7  8  1  0  0  0  0
  4  9  1  0  0  0  0
  9 10  1  0  0  0  0
 10 11  1  0  0  0  0
 11 12  1  0  0  0  0
 12 13  2  0  0  0  0
 12 14  2  0  0  0  0
 14 15  1  0  0  0  0
 15 16  1  0  0  0  0
 12 17  2  0  0  0  0
 17 18  1  0  0  0  0
 18 19  1  0  0  0  0
  1 20  1  0  0  0  0
  1 21  1  0  0  0  0
  1 22  1  0  0  0  0
  2 23  1  0  0  0  0
  2 24  1  0  0  0  0
  7 25  1  0  0  0  0
  7 26  1  0  0  0  0
  8 27  1  0  0  0  0
  8 28  1  0  0  0  0
  8 29  1  0  0  0  0
 10 30  1  0  0  0  0
 10 31  1  0  0  0  0
 15 32  1  0  0  0  0
 15 33  1  0  0  0  0
 16 34  1  0  0  0  0
 16 35  1  0  0  0  0
 16 36  1  0  0  0  0
 18 37  1  0  0  0  0
 18 38  1  0  0  0  0
 19 39  1  0  0  0  0
 19 40  1  0  0  0  0
 19 41  1  0  0  0  0
M  END
