 xtb: 6.7.1 (edcfbbe)
          04032520233D

  5  4  0     0  0            999 V2000
   -0.5746   -0.6407   -0.0000 C   0  0  0  0  0  0  0  0  0  0  0  0
   -1.5158    0.3446   -0.0000 F   0  0  0  0  0  0  0  0  0  0  0  0
    1.0466    0.1019   -0.0000 Cl  0  0  0  0  0  0  0  0  0  0  0  0
   -0.6980   -1.2220   -0.9150 H   0  0  0  0  0  0  0  0  0  0  0  0
   -0.6981   -1.2218    0.9151 H   0  0  0  0  0  0  0  0  0  0  0  0
  1  2  1  0  0  0  0
  1  3  1  0  0  0  0
  1  4  1  0  0  0  0
  1  5  1  0  0  0  0
M  END
