 xtb: 6.7.1 (edcfbbe)
          04092505203D

 41 40  0     0  0            999 V2000
    5.1230   -1.9138   -1.3549 C   0  0  0  0  0  0  0  0  0  0  0  0
    4.1251   -0.9142   -1.9025 C   0  0  0  0  0  0  0  0  0  0  0  0
    3.8440    0.1310   -0.9401 O   0  0  0  0  0  0  0  0  0  0  0  0
    2.6939    0.0778    0.1372 P   0  0  0  0  0  0  0  0  0  0  0  0
    2.6417    1.7203    1.1934 S   0  0  0  0  0  0  0  0  0  0  0  0
    3.0257   -1.2484    0.9509 O   0  0  0  0  0  0  0  0  0  0  0  0
    2.4791   -1.5105    2.2550 C   0  0  0  0  0  0  0  0  0  0  0  0
    1.0523   -2.0157    2.1803 C   0  0  0  0  0  0  0  0  0  0  0  0
    0.9457   -0.4159   -1.0035 S   0  0  0  0  0  0  0  0  0  0  0  0
    0.1927    1.2298   -1.0306 C   0  0  0  0  0  0  0  0  0  0  0  0
   -0.8464    1.5638    0.4194 S   0  0  0  0  0  0  0  0  0  0  0  0
   -2.4068    0.2467   -0.1251 P   0  0  0  0  0  0  0  0  0  0  0  0
   -2.8525    0.1282   -2.0350 S   0  0  0  0  0  0  0  0  0  0  0  0
   -3.6143    0.6402    0.8294 O   0  0  0  0  0  0  0  0  0  0  0  0
   -4.6029    1.6169    0.4613 C   0  0  0  0  0  0  0  0  0  0  0  0
   -4.0262    3.0164    0.3932 C   0  0  0  0  0  0  0  0  0  0  0  0
   -1.8783   -1.0835    0.5510 O   0  0  0  0  0  0  0  0  0  0  0  0
   -2.3250   -2.3906    0.1341 C   0  0  0  0  0  0  0  0  0  0  0  0
   -3.7816   -2.6226    0.4759 C   0  0  0  0  0  0  0  0  0  0  0  0
    4.6998   -2.4481   -0.5091 H   0  0  0  0  0  0  0  0  0  0  0  0
    5.3771   -2.6231   -2.1365 H   0  0  0  0  0  0  0  0  0  0  0  0
    6.0237   -1.3998   -1.0305 H   0  0  0  0  0  0  0  0  0  0  0  0
    3.1850   -1.4013   -2.1777 H   0  0  0  0  0  0  0  0  0  0  0  0
    4.5303   -0.3792   -2.7633 H   0  0  0  0  0  0  0  0  0  0  0  0
    3.1465   -2.2655    2.6737 H   0  0  0  0  0  0  0  0  0  0  0  0
    2.5394   -0.5931    2.8496 H   0  0  0  0  0  0  0  0  0  0  0  0
    0.7362   -2.3403    3.1665 H   0  0  0  0  0  0  0  0  0  0  0  0
    0.3824   -1.2268    1.8424 H   0  0  0  0  0  0  0  0  0  0  0  0
    0.9893   -2.8508    1.4870 H   0  0  0  0  0  0  0  0  0  0  0  0
   -0.4225    1.2770   -1.9293 H   0  0  0  0  0  0  0  0  0  0  0  0
    0.9710    1.9903   -1.0359 H   0  0  0  0  0  0  0  0  0  0  0  0
   -5.0287    1.3305   -0.5059 H   0  0  0  0  0  0  0  0  0  0  0  0
   -5.3600    1.5307    1.2418 H   0  0  0  0  0  0  0  0  0  0  0  0
   -3.3205    3.0896   -0.4335 H   0  0  0  0  0  0  0  0  0  0  0  0
   -4.8286    3.7298    0.2347 H   0  0  0  0  0  0  0  0  0  0  0  0
   -3.5056    3.2564    1.3171 H   0  0  0  0  0  0  0  0  0  0  0  0
   -2.1572   -2.4847   -0.9434 H   0  0  0  0  0  0  0  0  0  0  0  0
   -1.6684   -3.0743    0.6732 H   0  0  0  0  0  0  0  0  0  0  0  0
   -3.9532   -2.4360    1.5327 H   0  0  0  0  0  0  0  0  0  0  0  0
   -4.4102   -1.9501   -0.1068 H   0  0  0  0  0  0  0  0  0  0  0  0
   -4.0487   -3.6478    0.2396 H   0  0  0  0  0  0  0  0  0  0  0  0
  1  2  1  0  0  0  0
  2  3  1  0  0  0  0
  3  4  2  0  0  0  0
  4  5  2  0  0  0  0
  4  6  2  0  0  0  0
  6  7  1  0  0  0  0
  7  8  1  0  0  0  0
  4  9  1  0  0  0  0
  9 10  1  0  0  0  0
 10 11  1  0  0  0  0
 11 12  1  0  0  0  0
 12 13  2  0  0  0  0
 12 14  2  0  0  0  0
 14 15  1  0  0  0  0
 15 16  1  0  0  0  0
 12 17  2  0  0  0  0
 17 18  1  0  0  0  0
 18 19  1  0  0  0  0
  1 20  1  0  0  0  0
  1 21  1  0  0  0  0
  1 22  1  0  0  0  0
  2 23  1  0  0  0  0
  2 24  1  0  0  0  0
  7 25  1  0  0  0  0
  7 26  1  0  0  0  0
  8 27  1  0  0  0  0
  8 28  1  0  0  0  0
  8 29  1  0  0  0  0
 10 30  1  0  0  0  0
 10 31  1  0  0  0  0
 15 32  1  0  0  0  0
 15 33  1  0  0  0  0
 16 34  1  0  0  0  0
 16 35  1  0  0  0  0
 16 36  1  0  0  0  0
 18 37  1  0  0  0  0
 18 38  1  0  0  0  0
 19 39  1  0  0  0  0
 19 40  1  0  0  0  0
 19 41  1  0  0  0  0
M  END
