 xtb: 6.7.1 (edcfbbe)
          04092507313D

 38 37  0     0  0            999 V2000
    5.4922   -1.6787   -1.0140 C   0  0  0  0  0  0  0  0  0  0  0  0
    4.6363   -0.4228   -0.9703 C   0  0  0  0  0  0  0  0  0  0  0  0
    3.2433   -0.7406   -1.1560 O   0  0  0  0  0  0  0  0  0  0  0  0
    2.5273   -1.0656   -0.0987 C   0  0  0  0  0  0  0  0  0  0  0  0
    2.9493   -1.1141    1.0337 O   0  0  0  0  0  0  0  0  0  0  0  0
    1.0881   -1.3717   -0.4815 C   0  0  0  0  0  0  0  0  0  0  0  0
    0.4545   -0.1673   -1.1845 C   0  0  0  0  0  0  0  0  0  0  0  0
    1.0196    0.0740   -2.0877 H   0  0  0  0  0  0  0  0  0  0  0  0
    0.4277    1.0271   -0.2567 C   0  0  0  0  0  0  0  0  0  0  0  0
   -0.6132    1.4964    0.1693 O   0  0  0  0  0  0  0  0  0  0  0  0
    1.6145    1.4600    0.0425 O   0  0  0  0  0  0  0  0  0  0  0  0
    1.7406    2.5207    1.0209 C   0  0  0  0  0  0  0  0  0  0  0  0
    3.1592    2.4941    1.5526 C   0  0  0  0  0  0  0  0  0  0  0  0
   -1.2553   -0.4989   -1.7235 S   0  0  0  0  0  0  0  0  0  0  0  0
   -2.3524   -0.2147    0.0615 P   0  0  0  0  0  0  0  0  0  0  0  0
   -1.7047   -0.6370    1.8776 S   0  0  0  0  0  0  0  0  0  0  0  0
   -3.3050    1.0661   -0.0434 O   0  0  0  0  0  0  0  0  0  0  0  0
   -3.1934    2.2707    0.7128 C   0  0  0  0  0  0  0  0  0  0  0  0
   -3.4077   -1.3198   -0.4410 O   0  0  0  0  0  0  0  0  0  0  0  0
   -4.5477   -1.6759    0.3436 C   0  0  0  0  0  0  0  0  0  0  0  0
    6.5387   -1.4028   -0.9383 H   0  0  0  0  0  0  0  0  0  0  0  0
    5.2391   -2.3325   -0.1824 H   0  0  0  0  0  0  0  0  0  0  0  0
    5.3286   -2.2121   -1.9462 H   0  0  0  0  0  0  0  0  0  0  0  0
    4.8741    0.2487   -1.7951 H   0  0  0  0  0  0  0  0  0  0  0  0
    4.7516    0.0902   -0.0120 H   0  0  0  0  0  0  0  0  0  0  0  0
    0.5353   -1.6281    0.4251 H   0  0  0  0  0  0  0  0  0  0  0  0
    1.0742   -2.2202   -1.1660 H   0  0  0  0  0  0  0  0  0  0  0  0
    1.5104    3.4647    0.5199 H   0  0  0  0  0  0  0  0  0  0  0  0
    1.0048    2.3456    1.8111 H   0  0  0  0  0  0  0  0  0  0  0  0
    3.3721    1.5196    1.9856 H   0  0  0  0  0  0  0  0  0  0  0  0
    3.8641    2.6889    0.7500 H   0  0  0  0  0  0  0  0  0  0  0  0
    3.2675    3.2545    2.3185 H   0  0  0  0  0  0  0  0  0  0  0  0
   -4.2116    2.6240    0.8610 H   0  0  0  0  0  0  0  0  0  0  0  0
   -2.6072    2.9980    0.1552 H   0  0  0  0  0  0  0  0  0  0  0  0
   -2.7142    2.0697    1.6720 H   0  0  0  0  0  0  0  0  0  0  0  0
   -4.2518   -1.8393    1.3824 H   0  0  0  0  0  0  0  0  0  0  0  0
   -4.9283   -2.5968   -0.0910 H   0  0  0  0  0  0  0  0  0  0  0  0
   -5.2986   -0.8880    0.2928 H   0  0  0  0  0  0  0  0  0  0  0  0
  1  2  1  0  0  0  0
  2  3  1  0  0  0  0
  3  4  1  0  0  0  0
  4  5  2  0  0  0  0
  4  6  1  0  0  0  0
  6  7  1  0  0  0  0
  7  8  1  0  0  0  0
  7  9  1  0  0  0  0
  9 10  2  0  0  0  0
  9 11  4  0  0  0  0
 11 12  1  0  0  0  0
 12 13  1  0  0  0  0
  7 14  1  0  0  0  0
 14 15  1  0  0  0  0
 15 16  2  0  0  0  0
 15 17  2  0  0  0  0
 17 18  1  0  0  0  0
 15 19  1  0  0  0  0
 19 20  1  0  0  0  0
  1 21  1  0  0  0  0
  1 22  1  0  0  0  0
  1 23  1  0  0  0  0
  2 24  1  0  0  0  0
  2 25  1  0  0  0  0
  6 26  1  0  0  0  0
  6 27  1  0  0  0  0
 12 28  1  0  0  0  0
 12 29  1  0  0  0  0
 13 30  1  0  0  0  0
 13 31  1  0  0  0  0
 13 32  1  0  0  0  0
 18 33  1  0  0  0  0
 18 34  1  0  0  0  0
 18 35  1  0  0  0  0
 20 36  1  0  0  0  0
 20 37  1  0  0  0  0
 20 38  1  0  0  0  0
M  END
