 xtb: 6.7.1 (edcfbbe)
          04092505213D

 41 40  0     0  0            999 V2000
    4.2120    0.8901   -2.2465 C   0  0  0  0  0  0  0  0  0  0  0  0
    4.0282   -0.6082   -2.1089 C   0  0  0  0  0  0  0  0  0  0  0  0
    3.8775   -1.0255   -0.7417 O   0  0  0  0  0  0  0  0  0  0  0  0
    2.7769   -0.4846    0.2596 P   0  0  0  0  0  0  0  0  0  0  0  0
    3.1108    1.2350    1.1538 S   0  0  0  0  0  0  0  0  0  0  0  0
    2.8362   -1.7404    1.2201 O   0  0  0  0  0  0  0  0  0  0  0  0
    2.3825   -1.6966    2.5830 C   0  0  0  0  0  0  0  0  0  0  0  0
    0.8693   -1.7221    2.6707 C   0  0  0  0  0  0  0  0  0  0  0  0
    0.9578   -0.6249   -0.8564 S   0  0  0  0  0  0  0  0  0  0  0  0
    0.2355    0.9969   -0.4780 C   0  0  0  0  0  0  0  0  0  0  0  0
   -1.0749    0.9247    0.7653 S   0  0  0  0  0  0  0  0  0  0  0  0
   -2.6995    0.3591   -0.5087 P   0  0  0  0  0  0  0  0  0  0  0  0
   -2.2570   -0.1349   -2.3483 S   0  0  0  0  0  0  0  0  0  0  0  0
   -3.6998    1.5762   -0.5366 O   0  0  0  0  0  0  0  0  0  0  0  0
   -4.1913    2.2500    0.6496 C   0  0  0  0  0  0  0  0  0  0  0  0
   -3.5667    3.6271    0.7593 C   0  0  0  0  0  0  0  0  0  0  0  0
   -3.5138   -0.6773    0.3853 O   0  0  0  0  0  0  0  0  0  0  0  0
   -2.9604   -1.8294    1.0454 C   0  0  0  0  0  0  0  0  0  0  0  0
   -2.2533   -2.7677    0.0895 C   0  0  0  0  0  0  0  0  0  0  0  0
    5.0332    1.2293   -1.6193 H   0  0  0  0  0  0  0  0  0  0  0  0
    4.4257    1.1343   -3.2822 H   0  0  0  0  0  0  0  0  0  0  0  0
    3.3060    1.4121   -1.9402 H   0  0  0  0  0  0  0  0  0  0  0  0
    4.9143   -1.1493   -2.4455 H   0  0  0  0  0  0  0  0  0  0  0  0
    3.1548   -0.9461   -2.6747 H   0  0  0  0  0  0  0  0  0  0  0  0
    2.8264   -2.5844    3.0359 H   0  0  0  0  0  0  0  0  0  0  0  0
    2.7843   -0.7969    3.0612 H   0  0  0  0  0  0  0  0  0  0  0  0
    0.4765   -2.5524    2.0889 H   0  0  0  0  0  0  0  0  0  0  0  0
    0.5713   -1.8348    3.7081 H   0  0  0  0  0  0  0  0  0  0  0  0
    0.4583   -0.7891    2.2869 H   0  0  0  0  0  0  0  0  0  0  0  0
   -0.1779    1.3853   -1.4065 H   0  0  0  0  0  0  0  0  0  0  0  0
    1.0149    1.6448   -0.0694 H   0  0  0  0  0  0  0  0  0  0  0  0
   -5.2714    2.3136    0.5092 H   0  0  0  0  0  0  0  0  0  0  0  0
   -3.9704    1.6411    1.5288 H   0  0  0  0  0  0  0  0  0  0  0  0
   -3.7356    4.1847   -0.1578 H   0  0  0  0  0  0  0  0  0  0  0  0
   -4.0207    4.1579    1.5899 H   0  0  0  0  0  0  0  0  0  0  0  0
   -2.4960    3.5491    0.9320 H   0  0  0  0  0  0  0  0  0  0  0  0
   -2.2772   -1.4832    1.8265 H   0  0  0  0  0  0  0  0  0  0  0  0
   -3.8308   -2.3060    1.4998 H   0  0  0  0  0  0  0  0  0  0  0  0
   -1.3733   -2.2868   -0.3372 H   0  0  0  0  0  0  0  0  0  0  0  0
   -1.9463   -3.6623    0.6221 H   0  0  0  0  0  0  0  0  0  0  0  0
   -2.9158   -3.0461   -0.7266 H   0  0  0  0  0  0  0  0  0  0  0  0
  1  2  1  0  0  0  0
  2  3  1  0  0  0  0
  3  4  2  0  0  0  0
  4  5  2  0  0  0  0
  4  6  2  0  0  0  0
  6  7  1  0  0  0  0
  7  8  1  0  0  0  0
  4  9  1  0  0  0  0
  9 10  1  0  0  0  0
 10 11  1  0  0  0  0
 11 12  1  0  0  0  0
 12 13  2  0  0  0  0
 12 14  2  0  0  0  0
 14 15  1  0  0  0  0
 15 16  1  0  0  0  0
 12 17  2  0  0  0  0
 17 18  1  0  0  0  0
 18 19  1  0  0  0  0
  1 20  1  0  0  0  0
  1 21  1  0  0  0  0
  1 22  1  0  0  0  0
  2 23  1  0  0  0  0
  2 24  1  0  0  0  0
  7 25  1  0  0  0  0
  7 26  1  0  0  0  0
  8 27  1  0  0  0  0
  8 28  1  0  0  0  0
  8 29  1  0  0  0  0
 10 30  1  0  0  0  0
 10 31  1  0  0  0  0
 15 32  1  0  0  0  0
 15 33  1  0  0  0  0
 16 34  1  0  0  0  0
 16 35  1  0  0  0  0
 16 36  1  0  0  0  0
 18 37  1  0  0  0  0
 18 38  1  0  0  0  0
 19 39  1  0  0  0  0
 19 40  1  0  0  0  0
 19 41  1  0  0  0  0
M  END
