 xtb: 6.7.1 (edcfbbe)
          04092507313D

 38 37  0     0  0            999 V2000
    3.4921   -3.0033    0.5519 C   0  0  0  0  0  0  0  0  0  0  0  0
    2.8890   -1.6840    1.0061 C   0  0  0  0  0  0  0  0  0  0  0  0
    2.6629   -0.8045   -0.1120 O   0  0  0  0  0  0  0  0  0  0  0  0
    1.5865   -0.9767   -0.8492 C   0  0  0  0  0  0  0  0  0  0  0  0
    0.7310   -1.8153   -0.6473 O   0  0  0  0  0  0  0  0  0  0  0  0
    1.5163    0.0254   -1.9837 C   0  0  0  0  0  0  0  0  0  0  0  0
    0.2857    0.9216   -1.8181 C   0  0  0  0  0  0  0  0  0  0  0  0
    0.2129    1.6031   -2.6703 H   0  0  0  0  0  0  0  0  0  0  0  0
    0.3329    1.7385   -0.5431 C   0  0  0  0  0  0  0  0  0  0  0  0
   -0.6347    1.8606    0.1883 O   0  0  0  0  0  0  0  0  0  0  0  0
    1.4995    2.2659   -0.3221 O   0  0  0  0  0  0  0  0  0  0  0  0
    1.6975    3.0009    0.9070 C   0  0  0  0  0  0  0  0  0  0  0  0
    3.1867    3.2261    1.0701 C   0  0  0  0  0  0  0  0  0  0  0  0
   -1.2865   -0.0118   -1.8313 S   0  0  0  0  0  0  0  0  0  0  0  0
   -1.7539   -0.3559    0.2166 P   0  0  0  0  0  0  0  0  0  0  0  0
   -0.5657   -0.5307    1.7817 S   0  0  0  0  0  0  0  0  0  0  0  0
   -3.0464    0.5387    0.4632 O   0  0  0  0  0  0  0  0  0  0  0  0
   -3.1609    1.5836    1.4279 C   0  0  0  0  0  0  0  0  0  0  0  0
   -2.6102   -1.6960    0.0044 O   0  0  0  0  0  0  0  0  0  0  0  0
   -2.0289   -2.9799   -0.2173 C   0  0  0  0  0  0  0  0  0  0  0  0
    2.7888   -3.5384   -0.0822 H   0  0  0  0  0  0  0  0  0  0  0  0
    4.4085   -2.8240   -0.0037 H   0  0  0  0  0  0  0  0  0  0  0  0
    3.7123   -3.6118    1.4226 H   0  0  0  0  0  0  0  0  0  0  0  0
    3.5759   -1.1322    1.6476 H   0  0  0  0  0  0  0  0  0  0  0  0
    1.9394   -1.8403    1.5266 H   0  0  0  0  0  0  0  0  0  0  0  0
    1.4200   -0.5222   -2.9213 H   0  0  0  0  0  0  0  0  0  0  0  0
    2.4187    0.6351   -1.9825 H   0  0  0  0  0  0  0  0  0  0  0  0
    1.1471    3.9429    0.8321 H   0  0  0  0  0  0  0  0  0  0  0  0
    1.2758    2.4130    1.7285 H   0  0  0  0  0  0  0  0  0  0  0  0
    3.7039    2.2721    1.1116 H   0  0  0  0  0  0  0  0  0  0  0  0
    3.5706    3.8004    0.2328 H   0  0  0  0  0  0  0  0  0  0  0  0
    3.3657    3.7697    1.9915 H   0  0  0  0  0  0  0  0  0  0  0  0
   -4.1787    1.5317    1.8078 H   0  0  0  0  0  0  0  0  0  0  0  0
   -2.9726    2.5409    0.9448 H   0  0  0  0  0  0  0  0  0  0  0  0
   -2.4433    1.4348    2.2372 H   0  0  0  0  0  0  0  0  0  0  0  0
   -1.2589   -3.1785    0.5297 H   0  0  0  0  0  0  0  0  0  0  0  0
   -1.5838   -3.0284   -1.2109 H   0  0  0  0  0  0  0  0  0  0  0  0
   -2.8474   -3.6892   -0.1234 H   0  0  0  0  0  0  0  0  0  0  0  0
  1  2  1  0  0  0  0
  2  3  1  0  0  0  0
  3  4  1  0  0  0  0
  4  5  2  0  0  0  0
  4  6  1  0  0  0  0
  6  7  1  0  0  0  0
  7  8  1  0  0  0  0
  7  9  1  0  0  0  0
  9 10  2  0  0  0  0
  9 11  4  0  0  0  0
 11 12  1  0  0  0  0
 12 13  1  0  0  0  0
  7 14  1  0  0  0  0
 14 15  1  0  0  0  0
 15 16  2  0  0  0  0
 15 17  1  0  0  0  0
 17 18  1  0  0  0  0
 15 19  1  0  0  0  0
 19 20  1  0  0  0  0
  1 21  1  0  0  0  0
  1 22  1  0  0  0  0
  1 23  1  0  0  0  0
  2 24  1  0  0  0  0
  2 25  1  0  0  0  0
  6 26  1  0  0  0  0
  6 27  1  0  0  0  0
 12 28  1  0  0  0  0
 12 29  1  0  0  0  0
 13 30  1  0  0  0  0
 13 31  1  0  0  0  0
 13 32  1  0  0  0  0
 18 33  1  0  0  0  0
 18 34  1  0  0  0  0
 18 35  1  0  0  0  0
 20 36  1  0  0  0  0
 20 37  1  0  0  0  0
 20 38  1  0  0  0  0
M  END
