 xtb: 6.7.1 (edcfbbe)
          04092505213D

 41 40  0     0  0            999 V2000
    0.2255   -2.2149    2.5416 C   0  0  0  0  0  0  0  0  0  0  0  0
    1.5345   -1.8744    1.8597 C   0  0  0  0  0  0  0  0  0  0  0  0
    1.5246   -0.4779    1.4956 O   0  0  0  0  0  0  0  0  0  0  0  0
    2.2894    0.1234    0.2451 P   0  0  0  0  0  0  0  0  0  0  0  0
    3.2248   -1.2130   -0.8512 S   0  0  0  0  0  0  0  0  0  0  0  0
    3.1631    1.1947    1.0212 O   0  0  0  0  0  0  0  0  0  0  0  0
    3.7619    2.3674    0.4389 C   0  0  0  0  0  0  0  0  0  0  0  0
    4.6387    2.0490   -0.7548 C   0  0  0  0  0  0  0  0  0  0  0  0
    0.8798    1.3325   -0.7823 S   0  0  0  0  0  0  0  0  0  0  0  0
    0.2859    0.0527   -1.9123 C   0  0  0  0  0  0  0  0  0  0  0  0
   -0.5188   -1.3203   -1.0445 S   0  0  0  0  0  0  0  0  0  0  0  0
   -2.1283   -0.2098   -0.2447 P   0  0  0  0  0  0  0  0  0  0  0  0
   -2.8738    1.1988   -1.3915 S   0  0  0  0  0  0  0  0  0  0  0  0
   -1.5637    0.2505    1.1549 O   0  0  0  0  0  0  0  0  0  0  0  0
   -2.0577    1.3910    1.8928 C   0  0  0  0  0  0  0  0  0  0  0  0
   -0.9107    2.3365    2.1905 C   0  0  0  0  0  0  0  0  0  0  0  0
   -3.1367   -1.3536    0.2102 O   0  0  0  0  0  0  0  0  0  0  0  0
   -3.9660   -2.0682   -0.7297 C   0  0  0  0  0  0  0  0  0  0  0  0
   -5.3554   -1.4633   -0.7835 C   0  0  0  0  0  0  0  0  0  0  0  0
    0.2539   -3.2527    2.8572 H   0  0  0  0  0  0  0  0  0  0  0  0
    0.0814   -1.5765    3.4084 H   0  0  0  0  0  0  0  0  0  0  0  0
   -0.6095   -2.0724    1.8600 H   0  0  0  0  0  0  0  0  0  0  0  0
    1.6872   -2.4789    0.9591 H   0  0  0  0  0  0  0  0  0  0  0  0
    2.3800   -2.0261    2.5353 H   0  0  0  0  0  0  0  0  0  0  0  0
    2.9615    3.0578    0.1585 H   0  0  0  0  0  0  0  0  0  0  0  0
    4.3438    2.7902    1.2598 H   0  0  0  0  0  0  0  0  0  0  0  0
    4.0350    1.6578   -1.5725 H   0  0  0  0  0  0  0  0  0  0  0  0
    5.1384    2.9536   -1.0860 H   0  0  0  0  0  0  0  0  0  0  0  0
    5.3836    1.3023   -0.4897 H   0  0  0  0  0  0  0  0  0  0  0  0
    1.1257   -0.3779   -2.4576 H   0  0  0  0  0  0  0  0  0  0  0  0
   -0.4264    0.5338   -2.5822 H   0  0  0  0  0  0  0  0  0  0  0  0
   -2.8360    1.8886    1.3056 H   0  0  0  0  0  0  0  0  0  0  0  0
   -2.4921    0.9883    2.8097 H   0  0  0  0  0  0  0  0  0  0  0  0
   -0.5652    2.8120    1.2756 H   0  0  0  0  0  0  0  0  0  0  0  0
   -1.2483    3.0997    2.8841 H   0  0  0  0  0  0  0  0  0  0  0  0
   -0.0825    1.7867    2.6314 H   0  0  0  0  0  0  0  0  0  0  0  0
   -3.4925   -2.0524   -1.7154 H   0  0  0  0  0  0  0  0  0  0  0  0
   -3.9910   -3.0931   -0.3551 H   0  0  0  0  0  0  0  0  0  0  0  0
   -5.9766   -2.0531   -1.4497 H   0  0  0  0  0  0  0  0  0  0  0  0
   -5.7972   -1.4550    0.2088 H   0  0  0  0  0  0  0  0  0  0  0  0
   -5.3066   -0.4422   -1.1555 H   0  0  0  0  0  0  0  0  0  0  0  0
  1  2  1  0  0  0  0
  2  3  1  0  0  0  0
  3  4  2  0  0  0  0
  4  5  2  0  0  0  0
  4  6  2  0  0  0  0
  6  7  1  0  0  0  0
  7  8  1  0  0  0  0
  4  9  1  0  0  0  0
  9 10  1  0  0  0  0
 10 11  1  0  0  0  0
 11 12  1  0  0  0  0
 12 13  2  0  0  0  0
 12 14  2  0  0  0  0
 14 15  1  0  0  0  0
 15 16  1  0  0  0  0
 12 17  2  0  0  0  0
 17 18  1  0  0  0  0
 18 19  1  0  0  0  0
  1 20  1  0  0  0  0
  1 21  1  0  0  0  0
  1 22  1  0  0  0  0
  2 23  1  0  0  0  0
  2 24  1  0  0  0  0
  7 25  1  0  0  0  0
  7 26  1  0  0  0  0
  8 27  1  0  0  0  0
  8 28  1  0  0  0  0
  8 29  1  0  0  0  0
 10 30  1  0  0  0  0
 10 31  1  0  0  0  0
 15 32  1  0  0  0  0
 15 33  1  0  0  0  0
 16 34  1  0  0  0  0
 16 35  1  0  0  0  0
 16 36  1  0  0  0  0
 18 37  1  0  0  0  0
 18 38  1  0  0  0  0
 19 39  1  0  0  0  0
 19 40  1  0  0  0  0
 19 41  1  0  0  0  0
M  END
