 xtb: 6.7.1 (edcfbbe)
          04092505213D

 41 40  0     0  0            999 V2000
    0.0765   -2.9982    1.5616 C   0  0  0  0  0  0  0  0  0  0  0  0
    1.3927   -2.2490    1.5844 C   0  0  0  0  0  0  0  0  0  0  0  0
    1.1488   -0.8861    1.1682 O   0  0  0  0  0  0  0  0  0  0  0  0
    2.1800   -0.0657    0.2933 P   0  0  0  0  0  0  0  0  0  0  0  0
    3.1657   -1.0812   -1.0697 S   0  0  0  0  0  0  0  0  0  0  0  0
    3.0953    0.5775    1.4257 O   0  0  0  0  0  0  0  0  0  0  0  0
    4.3747    1.1700    1.1430 C   0  0  0  0  0  0  0  0  0  0  0  0
    4.2451    2.4474    0.3388 C   0  0  0  0  0  0  0  0  0  0  0  0
    0.9442    1.5074   -0.3640 S   0  0  0  0  0  0  0  0  0  0  0  0
    0.3621    0.7010   -1.8776 C   0  0  0  0  0  0  0  0  0  0  0  0
   -0.6519   -0.7664   -1.5687 S   0  0  0  0  0  0  0  0  0  0  0  0
   -2.2489    0.2340   -0.6078 P   0  0  0  0  0  0  0  0  0  0  0  0
   -2.6321    2.0868   -1.0891 S   0  0  0  0  0  0  0  0  0  0  0  0
   -1.8650   -0.0285    0.9219 O   0  0  0  0  0  0  0  0  0  0  0  0
   -2.3160    0.8132    2.0021 C   0  0  0  0  0  0  0  0  0  0  0  0
   -1.2302    1.7859    2.4173 C   0  0  0  0  0  0  0  0  0  0  0  0
   -3.5131   -0.6670   -0.9374 O   0  0  0  0  0  0  0  0  0  0  0  0
   -3.5486   -2.1128   -0.8966 C   0  0  0  0  0  0  0  0  0  0  0  0
   -3.8173   -2.6294    0.5025 C   0  0  0  0  0  0  0  0  0  0  0  0
   -0.6417   -2.4971    2.2044 H   0  0  0  0  0  0  0  0  0  0  0  0
   -0.3158   -3.0288    0.5480 H   0  0  0  0  0  0  0  0  0  0  0  0
    0.2351   -4.0113    1.9164 H   0  0  0  0  0  0  0  0  0  0  0  0
    2.1193   -2.7017    0.9008 H   0  0  0  0  0  0  0  0  0  0  0  0
    1.8175   -2.2112    2.5901 H   0  0  0  0  0  0  0  0  0  0  0  0
    4.8014    1.3554    2.1295 H   0  0  0  0  0  0  0  0  0  0  0  0
    4.9828    0.4359    0.6047 H   0  0  0  0  0  0  0  0  0  0  0  0
    5.2187    2.9194    0.2539 H   0  0  0  0  0  0  0  0  0  0  0  0
    3.8737    2.2228   -0.6603 H   0  0  0  0  0  0  0  0  0  0  0  0
    3.5522    3.1308    0.8232 H   0  0  0  0  0  0  0  0  0  0  0  0
    1.2148    0.3614   -2.4654 H   0  0  0  0  0  0  0  0  0  0  0  0
   -0.2247    1.4451   -2.4149 H   0  0  0  0  0  0  0  0  0  0  0  0
   -3.2179    1.3487    1.6910 H   0  0  0  0  0  0  0  0  0  0  0  0
   -2.5599    0.1219    2.8112 H   0  0  0  0  0  0  0  0  0  0  0  0
   -0.3038    1.2502    2.6111 H   0  0  0  0  0  0  0  0  0  0  0  0
   -1.0533    2.5118    1.6265 H   0  0  0  0  0  0  0  0  0  0  0  0
   -1.5412    2.3079    3.3164 H   0  0  0  0  0  0  0  0  0  0  0  0
   -4.3594   -2.3716   -1.5800 H   0  0  0  0  0  0  0  0  0  0  0  0
   -2.6030   -2.4979   -1.2889 H   0  0  0  0  0  0  0  0  0  0  0  0
   -4.7322   -2.1905    0.8920 H   0  0  0  0  0  0  0  0  0  0  0  0
   -3.9260   -3.7087    0.4656 H   0  0  0  0  0  0  0  0  0  0  0  0
   -2.9930   -2.3790    1.1643 H   0  0  0  0  0  0  0  0  0  0  0  0
  1  2  1  0  0  0  0
  2  3  1  0  0  0  0
  3  4  2  0  0  0  0
  4  5  2  0  0  0  0
  4  6  2  0  0  0  0
  6  7  1  0  0  0  0
  7  8  1  0  0  0  0
  4  9  1  0  0  0  0
  9 10  1  0  0  0  0
 10 11  1  0  0  0  0
 11 12  1  0  0  0  0
 12 13  2  0  0  0  0
 12 14  1  0  0  0  0
 14 15  1  0  0  0  0
 15 16  1  0  0  0  0
 12 17  2  0  0  0  0
 17 18  1  0  0  0  0
 18 19  1  0  0  0  0
  1 20  1  0  0  0  0
  1 21  1  0  0  0  0
  1 22  1  0  0  0  0
  2 23  1  0  0  0  0
  2 24  1  0  0  0  0
  7 25  1  0  0  0  0
  7 26  1  0  0  0  0
  8 27  1  0  0  0  0
  8 28  1  0  0  0  0
  8 29  1  0  0  0  0
 10 30  1  0  0  0  0
 10 31  1  0  0  0  0
 15 32  1  0  0  0  0
 15 33  1  0  0  0  0
 16 34  1  0  0  0  0
 16 35  1  0  0  0  0
 16 36  1  0  0  0  0
 18 37  1  0  0  0  0
 18 38  1  0  0  0  0
 19 39  1  0  0  0  0
 19 40  1  0  0  0  0
 19 41  1  0  0  0  0
M  END
