 xtb: 6.7.1 (edcfbbe)
          04092505213D

 41 40  0     0  0            999 V2000
    5.4708   -0.7275    0.8831 C   0  0  0  0  0  0  0  0  0  0  0  0
    4.2481   -1.5069    0.4451 C   0  0  0  0  0  0  0  0  0  0  0  0
    3.6153   -0.8780   -0.6981 O   0  0  0  0  0  0  0  0  0  0  0  0
    2.3991    0.1169   -0.5903 P   0  0  0  0  0  0  0  0  0  0  0  0
    1.8643    0.7186   -2.3726 S   0  0  0  0  0  0  0  0  0  0  0  0
    2.9325    1.1918    0.4513 O   0  0  0  0  0  0  0  0  0  0  0  0
    2.1900    2.3623    0.8431 C   0  0  0  0  0  0  0  0  0  0  0  0
    2.5629    3.5496   -0.0220 C   0  0  0  0  0  0  0  0  0  0  0  0
    0.9252   -0.9329    0.5356 S   0  0  0  0  0  0  0  0  0  0  0  0
   -0.1332   -1.4614   -0.8545 C   0  0  0  0  0  0  0  0  0  0  0  0
   -1.8171   -1.7999   -0.3229 S   0  0  0  0  0  0  0  0  0  0  0  0
   -2.4538    0.1892    0.1557 P   0  0  0  0  0  0  0  0  0  0  0  0
   -1.2750    1.6555   -0.3775 S   0  0  0  0  0  0  0  0  0  0  0  0
   -2.8264    0.1520    1.7039 O   0  0  0  0  0  0  0  0  0  0  0  0
   -1.8626    0.2385    2.7698 C   0  0  0  0  0  0  0  0  0  0  0  0
   -1.4638   -1.1378    3.2661 C   0  0  0  0  0  0  0  0  0  0  0  0
   -3.8773    0.3154   -0.4958 O   0  0  0  0  0  0  0  0  0  0  0  0
   -4.9301   -0.6697   -0.3051 C   0  0  0  0  0  0  0  0  0  0  0  0
   -5.2023   -1.3910   -1.6094 C   0  0  0  0  0  0  0  0  0  0  0  0
    5.1848    0.2619    1.2291 H   0  0  0  0  0  0  0  0  0  0  0  0
    5.9618   -1.2626    1.6899 H   0  0  0  0  0  0  0  0  0  0  0  0
    6.1608   -0.6207    0.0506 H   0  0  0  0  0  0  0  0  0  0  0  0
    3.5163   -1.5879    1.2542 H   0  0  0  0  0  0  0  0  0  0  0  0
    4.5185   -2.5025    0.0889 H   0  0  0  0  0  0  0  0  0  0  0  0
    1.1179    2.1606    0.7716 H   0  0  0  0  0  0  0  0  0  0  0  0
    2.4657    2.5259    1.8866 H   0  0  0  0  0  0  0  0  0  0  0  0
    2.0367    4.4293    0.3340 H   0  0  0  0  0  0  0  0  0  0  0  0
    3.6344    3.7245    0.0180 H   0  0  0  0  0  0  0  0  0  0  0  0
    2.2738    3.3634   -1.0545 H   0  0  0  0  0  0  0  0  0  0  0  0
    0.2481   -2.3943   -1.2631 H   0  0  0  0  0  0  0  0  0  0  0  0
   -0.1238   -0.6666   -1.6050 H   0  0  0  0  0  0  0  0  0  0  0  0
   -0.9933    0.8033    2.4183 H   0  0  0  0  0  0  0  0  0  0  0  0
   -2.3733    0.8073    3.5491 H   0  0  0  0  0  0  0  0  0  0  0  0
   -0.8369   -1.0266    4.1445 H   0  0  0  0  0  0  0  0  0  0  0  0
   -2.3495   -1.7101    3.5263 H   0  0  0  0  0  0  0  0  0  0  0  0
   -0.9038   -1.6750    2.5039 H   0  0  0  0  0  0  0  0  0  0  0  0
   -4.6321   -1.3659    0.4809 H   0  0  0  0  0  0  0  0  0  0  0  0
   -5.7975   -0.0941    0.0212 H   0  0  0  0  0  0  0  0  0  0  0  0
   -5.4322   -0.6720   -2.3908 H   0  0  0  0  0  0  0  0  0  0  0  0
   -4.3346   -1.9729   -1.9103 H   0  0  0  0  0  0  0  0  0  0  0  0
   -6.0481   -2.0577   -1.4754 H   0  0  0  0  0  0  0  0  0  0  0  0
  1  2  1  0  0  0  0
  2  3  1  0  0  0  0
  3  4  2  0  0  0  0
  4  5  2  0  0  0  0
  4  6  2  0  0  0  0
  6  7  1  0  0  0  0
  7  8  1  0  0  0  0
  4  9  1  0  0  0  0
  9 10  1  0  0  0  0
 10 11  1  0  0  0  0
 11 12  1  0  0  0  0
 12 13  2  0  0  0  0
 12 14  2  0  0  0  0
 14 15  1  0  0  0  0
 15 16  1  0  0  0  0
 12 17  2  0  0  0  0
 17 18  1  0  0  0  0
 18 19  1  0  0  0  0
  1 20  1  0  0  0  0
  1 21  1  0  0  0  0
  1 22  1  0  0  0  0
  2 23  1  0  0  0  0
  2 24  1  0  0  0  0
  7 25  1  0  0  0  0
  7 26  1  0  0  0  0
  8 27  1  0  0  0  0
  8 28  1  0  0  0  0
  8 29  1  0  0  0  0
 10 30  1  0  0  0  0
 10 31  1  0  0  0  0
 15 32  1  0  0  0  0
 15 33  1  0  0  0  0
 16 34  1  0  0  0  0
 16 35  1  0  0  0  0
 16 36  1  0  0  0  0
 18 37  1  0  0  0  0
 18 38  1  0  0  0  0
 19 39  1  0  0  0  0
 19 40  1  0  0  0  0
 19 41  1  0  0  0  0
M  END
