 xtb: 6.7.1 (edcfbbe)
          04092505213D

 41 40  0     0  0            999 V2000
    2.6522   -2.9105    1.2842 C   0  0  0  0  0  0  0  0  0  0  0  0
    1.6375   -2.0747    0.5292 C   0  0  0  0  0  0  0  0  0  0  0  0
    1.8880   -0.6836    0.7842 O   0  0  0  0  0  0  0  0  0  0  0  0
    2.3293    0.3872   -0.3128 P   0  0  0  0  0  0  0  0  0  0  0  0
    3.0274   -0.3615   -1.9749 S   0  0  0  0  0  0  0  0  0  0  0  0
    3.3946    1.2804    0.4277 O   0  0  0  0  0  0  0  0  0  0  0  0
    3.1393    2.1328    1.5707 C   0  0  0  0  0  0  0  0  0  0  0  0
    3.2006    1.3566    2.8701 C   0  0  0  0  0  0  0  0  0  0  0  0
    0.6638    1.7166   -0.4938 S   0  0  0  0  0  0  0  0  0  0  0  0
   -0.0806    0.9412   -1.9425 C   0  0  0  0  0  0  0  0  0  0  0  0
   -0.6676   -0.7454   -1.6164 S   0  0  0  0  0  0  0  0  0  0  0  0
   -2.0963   -0.2333   -0.1495 P   0  0  0  0  0  0  0  0  0  0  0  0
   -3.0805    1.4460   -0.4071 S   0  0  0  0  0  0  0  0  0  0  0  0
   -1.2504   -0.3966    1.1765 O   0  0  0  0  0  0  0  0  0  0  0  0
   -1.7063    0.1397    2.4435 C   0  0  0  0  0  0  0  0  0  0  0  0
   -1.0164    1.4555    2.7400 C   0  0  0  0  0  0  0  0  0  0  0  0
   -3.0235   -1.5222   -0.0711 O   0  0  0  0  0  0  0  0  0  0  0  0
   -4.1109   -1.7484   -0.9906 C   0  0  0  0  0  0  0  0  0  0  0  0
   -5.1196   -2.6533   -0.3119 C   0  0  0  0  0  0  0  0  0  0  0  0
    2.6085   -2.6884    2.3465 H   0  0  0  0  0  0  0  0  0  0  0  0
    2.4344   -3.9618    1.1262 H   0  0  0  0  0  0  0  0  0  0  0  0
    3.6532   -2.6947    0.9176 H   0  0  0  0  0  0  0  0  0  0  0  0
    0.6173   -2.2703    0.8681 H   0  0  0  0  0  0  0  0  0  0  0  0
    1.7040   -2.2623   -0.5477 H   0  0  0  0  0  0  0  0  0  0  0  0
    3.9299    2.8832    1.5164 H   0  0  0  0  0  0  0  0  0  0  0  0
    2.1669    2.6154    1.4371 H   0  0  0  0  0  0  0  0  0  0  0  0
    2.4241    0.5965    2.8950 H   0  0  0  0  0  0  0  0  0  0  0  0
    4.1673    0.8699    2.9677 H   0  0  0  0  0  0  0  0  0  0  0  0
    3.0591    2.0429    3.6993 H   0  0  0  0  0  0  0  0  0  0  0  0
    0.6564    0.8601   -2.7411 H   0  0  0  0  0  0  0  0  0  0  0  0
   -0.9210    1.5711   -2.2325 H   0  0  0  0  0  0  0  0  0  0  0  0
   -2.7918    0.2647    2.4110 H   0  0  0  0  0  0  0  0  0  0  0  0
   -1.4460   -0.6253    3.1766 H   0  0  0  0  0  0  0  0  0  0  0  0
   -1.3078    1.7986    3.7274 H   0  0  0  0  0  0  0  0  0  0  0  0
    0.0618    1.3264    2.7055 H   0  0  0  0  0  0  0  0  0  0  0  0
   -1.3000    2.2037    2.0027 H   0  0  0  0  0  0  0  0  0  0  0  0
   -4.5534   -0.7815   -1.2537 H   0  0  0  0  0  0  0  0  0  0  0  0
   -3.6996   -2.2124   -1.8906 H   0  0  0  0  0  0  0  0  0  0  0  0
   -4.6432   -3.5842   -0.0185 H   0  0  0  0  0  0  0  0  0  0  0  0
   -5.5229   -2.1689    0.5730 H   0  0  0  0  0  0  0  0  0  0  0  0
   -5.9285   -2.8649   -1.0035 H   0  0  0  0  0  0  0  0  0  0  0  0
  1  2  1  0  0  0  0
  2  3  1  0  0  0  0
  3  4  2  0  0  0  0
  4  5  2  0  0  0  0
  4  6  2  0  0  0  0
  6  7  1  0  0  0  0
  7  8  1  0  0  0  0
  4  9  1  0  0  0  0
  9 10  1  0  0  0  0
 10 11  1  0  0  0  0
 11 12  1  0  0  0  0
 12 13  2  0  0  0  0
 12 14  2  0  0  0  0
 14 15  1  0  0  0  0
 15 16  1  0  0  0  0
 12 17  2  0  0  0  0
 17 18  1  0  0  0  0
 18 19  1  0  0  0  0
  1 20  1  0  0  0  0
  1 21  1  0  0  0  0
  1 22  1  0  0  0  0
  2 23  1  0  0  0  0
  2 24  1  0  0  0  0
  7 25  1  0  0  0  0
  7 26  1  0  0  0  0
  8 27  1  0  0  0  0
  8 28  1  0  0  0  0
  8 29  1  0  0  0  0
 10 30  1  0  0  0  0
 10 31  1  0  0  0  0
 15 32  1  0  0  0  0
 15 33  1  0  0  0  0
 16 34  1  0  0  0  0
 16 35  1  0  0  0  0
 16 36  1  0  0  0  0
 18 37  1  0  0  0  0
 18 38  1  0  0  0  0
 19 39  1  0  0  0  0
 19 40  1  0  0  0  0
 19 41  1  0  0  0  0
M  END
