 xtb: 6.7.1 (edcfbbe)
          04092507313D

 38 37  0     0  0            999 V2000
    5.4035   -1.6169   -0.2127 C   0  0  0  0  0  0  0  0  0  0  0  0
    4.2486   -2.0825    0.6595 C   0  0  0  0  0  0  0  0  0  0  0  0
    3.0134   -2.0933   -0.0853 O   0  0  0  0  0  0  0  0  0  0  0  0
    2.3139   -0.9840   -0.1599 C   0  0  0  0  0  0  0  0  0  0  0  0
    2.6258    0.0681    0.3615 O   0  0  0  0  0  0  0  0  0  0  0  0
    1.0376   -1.1771   -0.9445 C   0  0  0  0  0  0  0  0  0  0  0  0
    0.4633    0.1707   -1.3637 C   0  0  0  0  0  0  0  0  0  0  0  0
    0.9537    0.5647   -2.2548 H   0  0  0  0  0  0  0  0  0  0  0  0
    0.5405    1.2042   -0.2552 C   0  0  0  0  0  0  0  0  0  0  0  0
   -0.0526    1.0629    0.7986 O   0  0  0  0  0  0  0  0  0  0  0  0
    1.1694    2.2825   -0.6356 O   0  0  0  0  0  0  0  0  0  0  0  0
    1.3387    3.3699    0.2984 C   0  0  0  0  0  0  0  0  0  0  0  0
    2.7817    3.4191    0.7708 C   0  0  0  0  0  0  0  0  0  0  0  0
   -1.3099    0.0538   -1.7873 S   0  0  0  0  0  0  0  0  0  0  0  0
   -2.2429   -0.2439    0.0834 P   0  0  0  0  0  0  0  0  0  0  0  0
   -1.5887   -1.5543    1.4003 S   0  0  0  0  0  0  0  0  0  0  0  0
   -2.6674    1.2111    0.5680 O   0  0  0  0  0  0  0  0  0  0  0  0
   -2.7893    1.5564    1.9541 C   0  0  0  0  0  0  0  0  0  0  0  0
   -3.6858   -0.6866   -0.4675 O   0  0  0  0  0  0  0  0  0  0  0  0
   -3.9261   -1.9999   -0.9821 C   0  0  0  0  0  0  0  0  0  0  0  0
    5.2502   -0.5842   -0.5174 H   0  0  0  0  0  0  0  0  0  0  0  0
    6.3274   -1.6841    0.3521 H   0  0  0  0  0  0  0  0  0  0  0  0
    5.4780   -2.2417   -1.0983 H   0  0  0  0  0  0  0  0  0  0  0  0
    4.1270   -1.4292    1.5280 H   0  0  0  0  0  0  0  0  0  0  0  0
    4.3801   -3.1165    0.9782 H   0  0  0  0  0  0  0  0  0  0  0  0
    0.3464   -1.6926   -0.2666 H   0  0  0  0  0  0  0  0  0  0  0  0
    1.2088   -1.8217   -1.8047 H   0  0  0  0  0  0  0  0  0  0  0  0
    1.0684    4.2686   -0.2587 H   0  0  0  0  0  0  0  0  0  0  0  0
    0.6516    3.2193    1.1354 H   0  0  0  0  0  0  0  0  0  0  0  0
    3.0462    2.4722    1.2354 H   0  0  0  0  0  0  0  0  0  0  0  0
    3.4443    3.5902   -0.0722 H   0  0  0  0  0  0  0  0  0  0  0  0
    2.8977    4.2207    1.4924 H   0  0  0  0  0  0  0  0  0  0  0  0
   -2.8436    2.6418    1.9786 H   0  0  0  0  0  0  0  0  0  0  0  0
   -1.9148    1.2049    2.5031 H   0  0  0  0  0  0  0  0  0  0  0  0
   -3.6937    1.1137    2.3695 H   0  0  0  0  0  0  0  0  0  0  0  0
   -3.4828   -2.7462   -0.3198 H   0  0  0  0  0  0  0  0  0  0  0  0
   -3.5042   -2.0897   -1.9826 H   0  0  0  0  0  0  0  0  0  0  0  0
   -5.0069   -2.1110   -1.0104 H   0  0  0  0  0  0  0  0  0  0  0  0
  1  2  1  0  0  0  0
  2  3  1  0  0  0  0
  3  4  4  0  0  0  0
  4  5  2  0  0  0  0
  4  6  1  0  0  0  0
  6  7  1  0  0  0  0
  7  8  1  0  0  0  0
  7  9  1  0  0  0  0
  9 10  2  0  0  0  0
  9 11  4  0  0  0  0
 11 12  1  0  0  0  0
 12 13  1  0  0  0  0
  7 14  1  0  0  0  0
 14 15  1  0  0  0  0
 15 16  2  0  0  0  0
 15 17  1  0  0  0  0
 17 18  1  0  0  0  0
 15 19  1  0  0  0  0
 19 20  1  0  0  0  0
  1 21  1  0  0  0  0
  1 22  1  0  0  0  0
  1 23  1  0  0  0  0
  2 24  1  0  0  0  0
  2 25  1  0  0  0  0
  6 26  1  0  0  0  0
  6 27  1  0  0  0  0
 12 28  1  0  0  0  0
 12 29  1  0  0  0  0
 13 30  1  0  0  0  0
 13 31  1  0  0  0  0
 13 32  1  0  0  0  0
 18 33  1  0  0  0  0
 18 34  1  0  0  0  0
 18 35  1  0  0  0  0
 20 36  1  0  0  0  0
 20 37  1  0  0  0  0
 20 38  1  0  0  0  0
M  END
