 xtb: 6.7.1 (edcfbbe)
          04092505213D

 41 40  0     0  0            999 V2000
    2.8834   -0.7206   -2.6907 C   0  0  0  0  0  0  0  0  0  0  0  0
    1.7190    0.0581   -2.1191 C   0  0  0  0  0  0  0  0  0  0  0  0
    1.1883   -0.5834   -0.9448 O   0  0  0  0  0  0  0  0  0  0  0  0
    1.9900   -0.5716    0.4343 P   0  0  0  0  0  0  0  0  0  0  0  0
    3.1422    0.9998    0.6930 S   0  0  0  0  0  0  0  0  0  0  0  0
    2.7181   -1.9804    0.3439 O   0  0  0  0  0  0  0  0  0  0  0  0
    3.2182   -2.7464    1.4569 C   0  0  0  0  0  0  0  0  0  0  0  0
    4.0987   -1.9387    2.3874 C   0  0  0  0  0  0  0  0  0  0  0  0
    0.4721   -0.9533    1.8416 S   0  0  0  0  0  0  0  0  0  0  0  0
   -0.2418    0.7145    2.0157 C   0  0  0  0  0  0  0  0  0  0  0  0
   -0.2928    1.6945    0.4900 S   0  0  0  0  0  0  0  0  0  0  0  0
   -1.8136    0.6844   -0.5898 P   0  0  0  0  0  0  0  0  0  0  0  0
   -1.8433    1.0637   -2.5100 S   0  0  0  0  0  0  0  0  0  0  0  0
   -3.1507    1.0648    0.1927 O   0  0  0  0  0  0  0  0  0  0  0  0
   -3.7401    2.3697    0.0447 C   0  0  0  0  0  0  0  0  0  0  0  0
   -5.0592    2.3712    0.7900 C   0  0  0  0  0  0  0  0  0  0  0  0
   -1.6373   -0.8165   -0.1398 O   0  0  0  0  0  0  0  0  0  0  0  0
   -2.0003   -1.9200   -0.9936 C   0  0  0  0  0  0  0  0  0  0  0  0
   -3.5037   -2.0713   -1.0768 C   0  0  0  0  0  0  0  0  0  0  0  0
    2.5855   -1.7456   -2.8943 H   0  0  0  0  0  0  0  0  0  0  0  0
    3.2157   -0.2475   -3.6093 H   0  0  0  0  0  0  0  0  0  0  0  0
    3.7036   -0.7268   -1.9734 H   0  0  0  0  0  0  0  0  0  0  0  0
    0.8752    0.1044   -2.8109 H   0  0  0  0  0  0  0  0  0  0  0  0
    2.0224    1.0772   -1.8533 H   0  0  0  0  0  0  0  0  0  0  0  0
    2.3603   -3.1571    1.9966 H   0  0  0  0  0  0  0  0  0  0  0  0
    3.7770   -3.5535    0.9796 H   0  0  0  0  0  0  0  0  0  0  0  0
    4.9148   -1.4781    1.8357 H   0  0  0  0  0  0  0  0  0  0  0  0
    3.5183   -1.1499    2.8641 H   0  0  0  0  0  0  0  0  0  0  0  0
    4.5054   -2.5913    3.1532 H   0  0  0  0  0  0  0  0  0  0  0  0
    0.3724    1.2945    2.7022 H   0  0  0  0  0  0  0  0  0  0  0  0
   -1.2482    0.5732    2.4034 H   0  0  0  0  0  0  0  0  0  0  0  0
   -3.0470    3.1136    0.4510 H   0  0  0  0  0  0  0  0  0  0  0  0
   -3.8786    2.5676   -1.0233 H   0  0  0  0  0  0  0  0  0  0  0  0
   -5.7249    1.6224    0.3711 H   0  0  0  0  0  0  0  0  0  0  0  0
   -4.8943    2.1484    1.8400 H   0  0  0  0  0  0  0  0  0  0  0  0
   -5.5177    3.3502    0.6981 H   0  0  0  0  0  0  0  0  0  0  0  0
   -1.5686   -1.7527   -1.9854 H   0  0  0  0  0  0  0  0  0  0  0  0
   -1.5243   -2.7813   -0.5226 H   0  0  0  0  0  0  0  0  0  0  0  0
   -3.9266   -2.1682   -0.0806 H   0  0  0  0  0  0  0  0  0  0  0  0
   -3.9328   -1.1941   -1.5600 H   0  0  0  0  0  0  0  0  0  0  0  0
   -3.7462   -2.9523   -1.6625 H   0  0  0  0  0  0  0  0  0  0  0  0
  1  2  1  0  0  0  0
  2  3  1  0  0  0  0
  3  4  1  0  0  0  0
  4  5  2  0  0  0  0
  4  6  2  0  0  0  0
  6  7  1  0  0  0  0
  7  8  1  0  0  0  0
  4  9  1  0  0  0  0
  9 10  1  0  0  0  0
 10 11  1  0  0  0  0
 11 12  1  0  0  0  0
 12 13  2  0  0  0  0
 12 14  1  0  0  0  0
 14 15  1  0  0  0  0
 15 16  1  0  0  0  0
 12 17  2  0  0  0  0
 17 18  1  0  0  0  0
 18 19  1  0  0  0  0
  1 20  1  0  0  0  0
  1 21  1  0  0  0  0
  1 22  1  0  0  0  0
  2 23  1  0  0  0  0
  2 24  1  0  0  0  0
  7 25  1  0  0  0  0
  7 26  1  0  0  0  0
  8 27  1  0  0  0  0
  8 28  1  0  0  0  0
  8 29  1  0  0  0  0
 10 30  1  0  0  0  0
 10 31  1  0  0  0  0
 15 32  1  0  0  0  0
 15 33  1  0  0  0  0
 16 34  1  0  0  0  0
 16 35  1  0  0  0  0
 16 36  1  0  0  0  0
 18 37  1  0  0  0  0
 18 38  1  0  0  0  0
 19 39  1  0  0  0  0
 19 40  1  0  0  0  0
 19 41  1  0  0  0  0
M  END
