 xtb: 6.7.1 (edcfbbe)
          04092505213D

 41 40  0     0  0            999 V2000
    4.3174   -2.4508   -0.2212 C   0  0  0  0  0  0  0  0  0  0  0  0
    4.8800   -1.0773   -0.5261 C   0  0  0  0  0  0  0  0  0  0  0  0
    4.0335   -0.0200   -0.0431 O   0  0  0  0  0  0  0  0  0  0  0  0
    2.5936    0.2679   -0.6494 P   0  0  0  0  0  0  0  0  0  0  0  0
    2.4591    0.0668   -2.5924 S   0  0  0  0  0  0  0  0  0  0  0  0
    2.3179    1.7587   -0.2207 O   0  0  0  0  0  0  0  0  0  0  0  0
    2.0013    2.2525    1.1029 C   0  0  0  0  0  0  0  0  0  0  0  0
    2.9769    1.7855    2.1606 C   0  0  0  0  0  0  0  0  0  0  0  0
    1.2720   -0.9570    0.4912 S   0  0  0  0  0  0  0  0  0  0  0  0
   -0.1180   -0.8632   -0.6538 C   0  0  0  0  0  0  0  0  0  0  0  0
   -0.9832    0.7437   -0.5671 S   0  0  0  0  0  0  0  0  0  0  0  0
   -2.7548    0.0436    0.3952 P   0  0  0  0  0  0  0  0  0  0  0  0
   -4.0448    1.4360    0.8706 S   0  0  0  0  0  0  0  0  0  0  0  0
   -2.2827   -0.9337    1.5451 O   0  0  0  0  0  0  0  0  0  0  0  0
   -2.2002   -0.4986    2.9160 C   0  0  0  0  0  0  0  0  0  0  0  0
   -1.0403    0.4512    3.1344 C   0  0  0  0  0  0  0  0  0  0  0  0
   -3.2757   -1.0890   -0.5903 O   0  0  0  0  0  0  0  0  0  0  0  0
   -3.9215   -0.7297   -1.8272 C   0  0  0  0  0  0  0  0  0  0  0  0
   -4.5734   -1.9769   -2.3883 C   0  0  0  0  0  0  0  0  0  0  0  0
    3.4159   -2.6230   -0.8071 H   0  0  0  0  0  0  0  0  0  0  0  0
    5.0535   -3.2041   -0.4829 H   0  0  0  0  0  0  0  0  0  0  0  0
    4.0737   -2.5356    0.8346 H   0  0  0  0  0  0  0  0  0  0  0  0
    5.0146   -0.9480   -1.6046 H   0  0  0  0  0  0  0  0  0  0  0  0
    5.8266   -0.9065   -0.0116 H   0  0  0  0  0  0  0  0  0  0  0  0
    2.0292    3.3357    0.9757 H   0  0  0  0  0  0  0  0  0  0  0  0
    0.9806    1.9426    1.3416 H   0  0  0  0  0  0  0  0  0  0  0  0
    3.9918    2.0558    1.8816 H   0  0  0  0  0  0  0  0  0  0  0  0
    2.7248    2.2582    3.1050 H   0  0  0  0  0  0  0  0  0  0  0  0
    2.9210    0.7050    2.2778 H   0  0  0  0  0  0  0  0  0  0  0  0
   -0.8116   -1.6599   -0.3956 H   0  0  0  0  0  0  0  0  0  0  0  0
    0.2621   -0.9704   -1.6711 H   0  0  0  0  0  0  0  0  0  0  0  0
   -3.1468   -0.0206    3.1870 H   0  0  0  0  0  0  0  0  0  0  0  0
   -2.0751   -1.4256    3.4767 H   0  0  0  0  0  0  0  0  0  0  0  0
   -1.2045    1.3642    2.5612 H   0  0  0  0  0  0  0  0  0  0  0  0
   -0.9761    0.7052    4.1873 H   0  0  0  0  0  0  0  0  0  0  0  0
   -0.1093   -0.0137    2.8180 H   0  0  0  0  0  0  0  0  0  0  0  0
   -4.6610    0.0519   -1.6216 H   0  0  0  0  0  0  0  0  0  0  0  0
   -3.1677   -0.3289   -2.5129 H   0  0  0  0  0  0  0  0  0  0  0  0
   -5.0696   -1.7301   -3.3211 H   0  0  0  0  0  0  0  0  0  0  0  0
   -3.8228   -2.7405   -2.5706 H   0  0  0  0  0  0  0  0  0  0  0  0
   -5.3037   -2.3622   -1.6828 H   0  0  0  0  0  0  0  0  0  0  0  0
  1  2  1  0  0  0  0
  2  3  1  0  0  0  0
  3  4  2  0  0  0  0
  4  5  2  0  0  0  0
  4  6  2  0  0  0  0
  6  7  1  0  0  0  0
  7  8  1  0  0  0  0
  4  9  1  0  0  0  0
  9 10  1  0  0  0  0
 10 11  1  0  0  0  0
 11 12  1  0  0  0  0
 12 13  2  0  0  0  0
 12 14  2  0  0  0  0
 14 15  1  0  0  0  0
 15 16  1  0  0  0  0
 12 17  2  0  0  0  0
 17 18  1  0  0  0  0
 18 19  1  0  0  0  0
  1 20  1  0  0  0  0
  1 21  1  0  0  0  0
  1 22  1  0  0  0  0
  2 23  1  0  0  0  0
  2 24  1  0  0  0  0
  7 25  1  0  0  0  0
  7 26  1  0  0  0  0
  8 27  1  0  0  0  0
  8 28  1  0  0  0  0
  8 29  1  0  0  0  0
 10 30  1  0  0  0  0
 10 31  1  0  0  0  0
 15 32  1  0  0  0  0
 15 33  1  0  0  0  0
 16 34  1  0  0  0  0
 16 35  1  0  0  0  0
 16 36  1  0  0  0  0
 18 37  1  0  0  0  0
 18 38  1  0  0  0  0
 19 39  1  0  0  0  0
 19 40  1  0  0  0  0
 19 41  1  0  0  0  0
M  END
