 xtb: 6.7.1 (edcfbbe)
          04092505203D

 41 40  0     0  0            999 V2000
    5.7652   -0.9993   -0.4345 C   0  0  0  0  0  0  0  0  0  0  0  0
    4.9281   -0.3365   -1.5086 C   0  0  0  0  0  0  0  0  0  0  0  0
    3.5370   -0.7102   -1.4223 O   0  0  0  0  0  0  0  0  0  0  0  0
    2.6101   -0.2535   -0.2227 P   0  0  0  0  0  0  0  0  0  0  0  0
    2.9455    1.5505    0.4771 S   0  0  0  0  0  0  0  0  0  0  0  0
    2.8299   -1.4303    0.8256 O   0  0  0  0  0  0  0  0  0  0  0  0
    2.4675   -1.3148    2.2109 C   0  0  0  0  0  0  0  0  0  0  0  0
    0.9736   -1.4595    2.4179 C   0  0  0  0  0  0  0  0  0  0  0  0
    0.7447   -0.6439   -1.1481 S   0  0  0  0  0  0  0  0  0  0  0  0
    0.0875    1.0506   -1.1673 C   0  0  0  0  0  0  0  0  0  0  0  0
   -0.7961    1.4955    0.3527 S   0  0  0  0  0  0  0  0  0  0  0  0
   -2.4797    0.2703   -0.0018 P   0  0  0  0  0  0  0  0  0  0  0  0
   -3.1188    0.1503   -1.8560 S   0  0  0  0  0  0  0  0  0  0  0  0
   -3.5588    0.7540    1.0583 O   0  0  0  0  0  0  0  0  0  0  0  0
   -4.5182    1.7860    0.7697 C   0  0  0  0  0  0  0  0  0  0  0  0
   -3.8659    3.1443    0.6112 C   0  0  0  0  0  0  0  0  0  0  0  0
   -1.9675   -1.0791    0.6484 O   0  0  0  0  0  0  0  0  0  0  0  0
   -2.5287   -2.3600    0.2996 C   0  0  0  0  0  0  0  0  0  0  0  0
   -3.9528   -2.5025    0.7939 C   0  0  0  0  0  0  0  0  0  0  0  0
    5.4875   -0.6124    0.5448 H   0  0  0  0  0  0  0  0  0  0  0  0
    5.6073   -2.0745   -0.4462 H   0  0  0  0  0  0  0  0  0  0  0  0
    6.8141   -0.7849   -0.6138 H   0  0  0  0  0  0  0  0  0  0  0  0
    5.2212   -0.6605   -2.5081 H   0  0  0  0  0  0  0  0  0  0  0  0
    4.9974    0.7534   -1.4343 H   0  0  0  0  0  0  0  0  0  0  0  0
    3.0177   -2.1217    2.6972 H   0  0  0  0  0  0  0  0  0  0  0  0
    2.8176   -0.3464    2.5842 H   0  0  0  0  0  0  0  0  0  0  0  0
    0.7572   -1.4899    3.4809 H   0  0  0  0  0  0  0  0  0  0  0  0
    0.4447   -0.6147    1.9786 H   0  0  0  0  0  0  0  0  0  0  0  0
    0.6175   -2.3739    1.9502 H   0  0  0  0  0  0  0  0  0  0  0  0
   -0.6024    1.1076   -2.0090 H   0  0  0  0  0  0  0  0  0  0  0  0
    0.9042    1.7628   -1.2695 H   0  0  0  0  0  0  0  0  0  0  0  0
   -5.0578    1.5112   -0.1424 H   0  0  0  0  0  0  0  0  0  0  0  0
   -5.1947    1.7610    1.6250 H   0  0  0  0  0  0  0  0  0  0  0  0
   -4.6349    3.9045    0.5184 H   0  0  0  0  0  0  0  0  0  0  0  0
   -3.2394    3.3658    1.4716 H   0  0  0  0  0  0  0  0  0  0  0  0
   -3.2461    3.1583   -0.2845 H   0  0  0  0  0  0  0  0  0  0  0  0
   -2.4794   -2.4749   -0.7880 H   0  0  0  0  0  0  0  0  0  0  0  0
   -1.8603   -3.0783    0.7757 H   0  0  0  0  0  0  0  0  0  0  0  0
   -4.5982   -1.8001    0.2678 H   0  0  0  0  0  0  0  0  0  0  0  0
   -4.3017   -3.5126    0.6033 H   0  0  0  0  0  0  0  0  0  0  0  0
   -4.0020   -2.2949    1.8595 H   0  0  0  0  0  0  0  0  0  0  0  0
  1  2  1  0  0  0  0
  2  3  1  0  0  0  0
  3  4  2  0  0  0  0
  4  5  2  0  0  0  0
  4  6  2  0  0  0  0
  6  7  1  0  0  0  0
  7  8  1  0  0  0  0
  4  9  1  0  0  0  0
  9 10  1  0  0  0  0
 10 11  1  0  0  0  0
 11 12  1  0  0  0  0
 12 13  2  0  0  0  0
 12 14  2  0  0  0  0
 14 15  1  0  0  0  0
 15 16  1  0  0  0  0
 12 17  2  0  0  0  0
 17 18  1  0  0  0  0
 18 19  1  0  0  0  0
  1 20  1  0  0  0  0
  1 21  1  0  0  0  0
  1 22  1  0  0  0  0
  2 23  1  0  0  0  0
  2 24  1  0  0  0  0
  7 25  1  0  0  0  0
  7 26  1  0  0  0  0
  8 27  1  0  0  0  0
  8 28  1  0  0  0  0
  8 29  1  0  0  0  0
 10 30  1  0  0  0  0
 10 31  1  0  0  0  0
 15 32  1  0  0  0  0
 15 33  1  0  0  0  0
 16 34  1  0  0  0  0
 16 35  1  0  0  0  0
 16 36  1  0  0  0  0
 18 37  1  0  0  0  0
 18 38  1  0  0  0  0
 19 39  1  0  0  0  0
 19 40  1  0  0  0  0
 19 41  1  0  0  0  0
M  END
