 xtb: 6.7.1 (edcfbbe)
          04092507313D

 38 37  0     0  0            999 V2000
    3.9404   -2.6271    0.7639 C   0  0  0  0  0  0  0  0  0  0  0  0
    2.4300   -2.6373    0.5939 C   0  0  0  0  0  0  0  0  0  0  0  0
    2.0397   -1.9256   -0.5954 O   0  0  0  0  0  0  0  0  0  0  0  0
    1.9358   -0.6163   -0.5470 C   0  0  0  0  0  0  0  0  0  0  0  0
    2.1105    0.0670    0.4406 O   0  0  0  0  0  0  0  0  0  0  0  0
    1.5773   -0.0268   -1.8992 C   0  0  0  0  0  0  0  0  0  0  0  0
    0.3283    0.8529   -1.7962 C   0  0  0  0  0  0  0  0  0  0  0  0
    0.2578    1.4957   -2.6767 H   0  0  0  0  0  0  0  0  0  0  0  0
    0.3563    1.7205   -0.5521 C   0  0  0  0  0  0  0  0  0  0  0  0
   -0.4573    1.5883    0.3480 O   0  0  0  0  0  0  0  0  0  0  0  0
    1.2775    2.6304   -0.6136 O   0  0  0  0  0  0  0  0  0  0  0  0
    1.5084    3.5039    0.5158 C   0  0  0  0  0  0  0  0  0  0  0  0
    2.9149    3.2740    1.0389 C   0  0  0  0  0  0  0  0  0  0  0  0
   -1.2161   -0.1224   -1.7990 S   0  0  0  0  0  0  0  0  0  0  0  0
   -1.8288   -0.4028    0.2129 P   0  0  0  0  0  0  0  0  0  0  0  0
   -0.6793   -1.0720    1.6643 S   0  0  0  0  0  0  0  0  0  0  0  0
   -2.9348    0.6856    0.5627 O   0  0  0  0  0  0  0  0  0  0  0  0
   -2.8928    1.5660    1.6859 C   0  0  0  0  0  0  0  0  0  0  0  0
   -2.9244   -1.5285   -0.1553 O   0  0  0  0  0  0  0  0  0  0  0  0
   -2.5489   -2.8682   -0.4759 C   0  0  0  0  0  0  0  0  0  0  0  0
    4.4188   -3.0339   -0.1228 H   0  0  0  0  0  0  0  0  0  0  0  0
    4.2922   -1.6110    0.9265 H   0  0  0  0  0  0  0  0  0  0  0  0
    4.2045   -3.2318    1.6249 H   0  0  0  0  0  0  0  0  0  0  0  0
    1.9303   -2.1805    1.4538 H   0  0  0  0  0  0  0  0  0  0  0  0
    2.0519   -3.6477    0.4383 H   0  0  0  0  0  0  0  0  0  0  0  0
    1.4138   -0.8262   -2.6197 H   0  0  0  0  0  0  0  0  0  0  0  0
    2.4160    0.5969   -2.2154 H   0  0  0  0  0  0  0  0  0  0  0  0
    1.3838    4.5183    0.1317 H   0  0  0  0  0  0  0  0  0  0  0  0
    0.7597    3.2934    1.2828 H   0  0  0  0  0  0  0  0  0  0  0  0
    3.0256    2.2351    1.3410 H   0  0  0  0  0  0  0  0  0  0  0  0
    3.6440    3.4976    0.2663 H   0  0  0  0  0  0  0  0  0  0  0  0
    3.0878    3.9160    1.8960 H   0  0  0  0  0  0  0  0  0  0  0  0
   -2.6701    2.5729    1.3363 H   0  0  0  0  0  0  0  0  0  0  0  0
   -2.1286    1.2445    2.3961 H   0  0  0  0  0  0  0  0  0  0  0  0
   -3.8776    1.5249    2.1471 H   0  0  0  0  0  0  0  0  0  0  0  0
   -3.4657   -3.4500   -0.4225 H   0  0  0  0  0  0  0  0  0  0  0  0
   -1.8226   -3.2361    0.2526 H   0  0  0  0  0  0  0  0  0  0  0  0
   -2.1253   -2.9127   -1.4797 H   0  0  0  0  0  0  0  0  0  0  0  0
  1  2  1  0  0  0  0
  2  3  1  0  0  0  0
  3  4  4  0  0  0  0
  4  5  2  0  0  0  0
  4  6  1  0  0  0  0
  6  7  1  0  0  0  0
  7  8  1  0  0  0  0
  7  9  1  0  0  0  0
  9 10  2  0  0  0  0
  9 11  4  0  0  0  0
 11 12  1  0  0  0  0
 12 13  1  0  0  0  0
  7 14  1  0  0  0  0
 14 15  1  0  0  0  0
 15 16  2  0  0  0  0
 15 17  2  0  0  0  0
 17 18  1  0  0  0  0
 15 19  1  0  0  0  0
 19 20  1  0  0  0  0
  1 21  1  0  0  0  0
  1 22  1  0  0  0  0
  1 23  1  0  0  0  0
  2 24  1  0  0  0  0
  2 25  1  0  0  0  0
  6 26  1  0  0  0  0
  6 27  1  0  0  0  0
 12 28  1  0  0  0  0
 12 29  1  0  0  0  0
 13 30  1  0  0  0  0
 13 31  1  0  0  0  0
 13 32  1  0  0  0  0
 18 33  1  0  0  0  0
 18 34  1  0  0  0  0
 18 35  1  0  0  0  0
 20 36  1  0  0  0  0
 20 37  1  0  0  0  0
 20 38  1  0  0  0  0
M  END
