 xtb: 6.7.1 (edcfbbe)
          04092505213D

 41 40  0     0  0            999 V2000
    4.2636    2.0945   -0.9848 C   0  0  0  0  0  0  0  0  0  0  0  0
    4.5047    0.6034   -0.8664 C   0  0  0  0  0  0  0  0  0  0  0  0
    3.2827   -0.1517   -0.9542 O   0  0  0  0  0  0  0  0  0  0  0  0
    2.1719   -0.1074    0.1788 P   0  0  0  0  0  0  0  0  0  0  0  0
    2.8545   -0.0504    2.0192 S   0  0  0  0  0  0  0  0  0  0  0  0
    1.2679   -1.3507   -0.1968 O   0  0  0  0  0  0  0  0  0  0  0  0
    1.4630   -2.6593    0.3713 C   0  0  0  0  0  0  0  0  0  0  0  0
    2.7828   -3.2682   -0.0516 C   0  0  0  0  0  0  0  0  0  0  0  0
    0.8817    1.4491   -0.4121 S   0  0  0  0  0  0  0  0  0  0  0  0
    0.0139    1.6112    1.1709 C   0  0  0  0  0  0  0  0  0  0  0  0
   -0.9627    0.1463    1.6256 S   0  0  0  0  0  0  0  0  0  0  0  0
   -2.1975    0.0011   -0.0969 P   0  0  0  0  0  0  0  0  0  0  0  0
   -1.5783   -0.9538   -1.6970 S   0  0  0  0  0  0  0  0  0  0  0  0
   -2.6142    1.5106   -0.2784 O   0  0  0  0  0  0  0  0  0  0  0  0
   -2.8665    2.1347   -1.5593 C   0  0  0  0  0  0  0  0  0  0  0  0
   -2.0292    3.3923   -1.6752 C   0  0  0  0  0  0  0  0  0  0  0  0
   -3.5243   -0.6246    0.5180 O   0  0  0  0  0  0  0  0  0  0  0  0
   -3.7681   -2.0401    0.6141 C   0  0  0  0  0  0  0  0  0  0  0  0
   -5.2586   -2.2743    0.4660 C   0  0  0  0  0  0  0  0  0  0  0  0
    3.6841    2.3132   -1.8783 H   0  0  0  0  0  0  0  0  0  0  0  0
    3.7157    2.4539   -0.1146 H   0  0  0  0  0  0  0  0  0  0  0  0
    5.2177    2.6091   -1.0376 H   0  0  0  0  0  0  0  0  0  0  0  0
    4.9883    0.3666    0.0869 H   0  0  0  0  0  0  0  0  0  0  0  0
    5.1058    0.2240   -1.6937 H   0  0  0  0  0  0  0  0  0  0  0  0
    1.4022   -2.5732    1.4616 H   0  0  0  0  0  0  0  0  0  0  0  0
    0.6126   -3.2317   -0.0035 H   0  0  0  0  0  0  0  0  0  0  0  0
    2.8424   -4.2881    0.3151 H   0  0  0  0  0  0  0  0  0  0  0  0
    2.8648   -3.2652   -1.1356 H   0  0  0  0  0  0  0  0  0  0  0  0
    3.6070   -2.6914    0.3673 H   0  0  0  0  0  0  0  0  0  0  0  0
   -0.6416    2.4741    1.0892 H   0  0  0  0  0  0  0  0  0  0  0  0
    0.7417    1.7370    1.9733 H   0  0  0  0  0  0  0  0  0  0  0  0
   -2.6249    1.4214   -2.3545 H   0  0  0  0  0  0  0  0  0  0  0  0
   -3.9342    2.3599   -1.5832 H   0  0  0  0  0  0  0  0  0  0  0  0
   -2.2593    4.0720   -0.8597 H   0  0  0  0  0  0  0  0  0  0  0  0
   -0.9698    3.1441   -1.6443 H   0  0  0  0  0  0  0  0  0  0  0  0
   -2.2527    3.8783   -2.6192 H   0  0  0  0  0  0  0  0  0  0  0  0
   -3.2056   -2.5479   -0.1775 H   0  0  0  0  0  0  0  0  0  0  0  0
   -3.4058   -2.3765    1.5891 H   0  0  0  0  0  0  0  0  0  0  0  0
   -5.5925   -1.9443   -0.5138 H   0  0  0  0  0  0  0  0  0  0  0  0
   -5.4652   -3.3336    0.5774 H   0  0  0  0  0  0  0  0  0  0  0  0
   -5.7972   -1.7186    1.2280 H   0  0  0  0  0  0  0  0  0  0  0  0
  1  2  1  0  0  0  0
  2  3  1  0  0  0  0
  3  4  2  0  0  0  0
  4  5  2  0  0  0  0
  4  6  2  0  0  0  0
  6  7  1  0  0  0  0
  7  8  1  0  0  0  0
  4  9  1  0  0  0  0
  9 10  1  0  0  0  0
 10 11  1  0  0  0  0
 11 12  1  0  0  0  0
 12 13  2  0  0  0  0
 12 14  2  0  0  0  0
 14 15  1  0  0  0  0
 15 16  1  0  0  0  0
 12 17  2  0  0  0  0
 17 18  1  0  0  0  0
 18 19  1  0  0  0  0
  1 20  1  0  0  0  0
  1 21  1  0  0  0  0
  1 22  1  0  0  0  0
  2 23  1  0  0  0  0
  2 24  1  0  0  0  0
  7 25  1  0  0  0  0
  7 26  1  0  0  0  0
  8 27  1  0  0  0  0
  8 28  1  0  0  0  0
  8 29  1  0  0  0  0
 10 30  1  0  0  0  0
 10 31  1  0  0  0  0
 15 32  1  0  0  0  0
 15 33  1  0  0  0  0
 16 34  1  0  0  0  0
 16 35  1  0  0  0  0
 16 36  1  0  0  0  0
 18 37  1  0  0  0  0
 18 38  1  0  0  0  0
 19 39  1  0  0  0  0
 19 40  1  0  0  0  0
 19 41  1  0  0  0  0
M  END
