 xtb: 6.7.1 (edcfbbe)
          04092507313D

 38 37  0     0  0            999 V2000
    5.2890   -2.3274   -0.9174 C   0  0  0  0  0  0  0  0  0  0  0  0
    4.6525   -1.1803   -0.1486 C   0  0  0  0  0  0  0  0  0  0  0  0
    3.2263   -1.3549   -0.0431 O   0  0  0  0  0  0  0  0  0  0  0  0
    2.4708   -0.9412   -1.0374 C   0  0  0  0  0  0  0  0  0  0  0  0
    2.8815   -0.3990   -2.0406 O   0  0  0  0  0  0  0  0  0  0  0  0
    1.0044   -1.2379   -0.7795 C   0  0  0  0  0  0  0  0  0  0  0  0
    0.1621   -0.0848   -1.3084 C   0  0  0  0  0  0  0  0  0  0  0  0
    0.4745    0.1395   -2.3358 H   0  0  0  0  0  0  0  0  0  0  0  0
    0.3196    1.1920   -0.5040 C   0  0  0  0  0  0  0  0  0  0  0  0
   -0.5796    2.0032   -0.3914 O   0  0  0  0  0  0  0  0  0  0  0  0
    1.5227    1.3132   -0.0146 O   0  0  0  0  0  0  0  0  0  0  0  0
    1.8439    2.4482    0.8186 C   0  0  0  0  0  0  0  0  0  0  0  0
    2.2862    1.9480    2.1823 C   0  0  0  0  0  0  0  0  0  0  0  0
   -1.6092   -0.4762   -1.4284 S   0  0  0  0  0  0  0  0  0  0  0  0
   -2.2690    0.0288    0.5296 P   0  0  0  0  0  0  0  0  0  0  0  0
   -0.9817   -0.0965    1.9963 S   0  0  0  0  0  0  0  0  0  0  0  0
   -3.0669    1.3897    0.5237 O   0  0  0  0  0  0  0  0  0  0  0  0
   -4.0108    1.7403   -0.5061 C   0  0  0  0  0  0  0  0  0  0  0  0
   -3.4986   -0.9905    0.6799 O   0  0  0  0  0  0  0  0  0  0  0  0
   -3.2883   -2.4004    0.8127 C   0  0  0  0  0  0  0  0  0  0  0  0
    4.9352   -2.3298   -1.9458 H   0  0  0  0  0  0  0  0  0  0  0  0
    6.3671   -2.2053   -0.9164 H   0  0  0  0  0  0  0  0  0  0  0  0
    5.0349   -3.2756   -0.4519 H   0  0  0  0  0  0  0  0  0  0  0  0
    4.8500   -0.2254   -0.6440 H   0  0  0  0  0  0  0  0  0  0  0  0
    5.0000   -1.1543    0.8843 H   0  0  0  0  0  0  0  0  0  0  0  0
    0.8510   -1.3954    0.2888 H   0  0  0  0  0  0  0  0  0  0  0  0
    0.7414   -2.1491   -1.3205 H   0  0  0  0  0  0  0  0  0  0  0  0
    2.6489    2.9780    0.3049 H   0  0  0  0  0  0  0  0  0  0  0  0
    0.9597    3.0872    0.8906 H   0  0  0  0  0  0  0  0  0  0  0  0
    3.1416    1.2872    2.0777 H   0  0  0  0  0  0  0  0  0  0  0  0
    2.5560    2.7953    2.8034 H   0  0  0  0  0  0  0  0  0  0  0  0
    1.4771    1.3979    2.6584 H   0  0  0  0  0  0  0  0  0  0  0  0
   -3.4760    1.9416   -1.4340 H   0  0  0  0  0  0  0  0  0  0  0  0
   -4.4995    2.6413   -0.1450 H   0  0  0  0  0  0  0  0  0  0  0  0
   -4.7304    0.9357   -0.6467 H   0  0  0  0  0  0  0  0  0  0  0  0
   -2.9740   -2.8191   -0.1429 H   0  0  0  0  0  0  0  0  0  0  0  0
   -4.2479   -2.8112    1.1156 H   0  0  0  0  0  0  0  0  0  0  0  0
   -2.5328   -2.5957    1.5753 H   0  0  0  0  0  0  0  0  0  0  0  0
  1  2  1  0  0  0  0
  2  3  1  0  0  0  0
  3  4  1  0  0  0  0
  4  5  2  0  0  0  0
  4  6  1  0  0  0  0
  6  7  1  0  0  0  0
  7  8  1  0  0  0  0
  7  9  1  0  0  0  0
  9 10  2  0  0  0  0
  9 11  4  0  0  0  0
 11 12  1  0  0  0  0
 12 13  1  0  0  0  0
  7 14  1  0  0  0  0
 14 15  1  0  0  0  0
 15 16  2  0  0  0  0
 15 17  2  0  0  0  0
 17 18  1  0  0  0  0
 15 19  1  0  0  0  0
 19 20  1  0  0  0  0
  1 21  1  0  0  0  0
  1 22  1  0  0  0  0
  1 23  1  0  0  0  0
  2 24  1  0  0  0  0
  2 25  1  0  0  0  0
  6 26  1  0  0  0  0
  6 27  1  0  0  0  0
 12 28  1  0  0  0  0
 12 29  1  0  0  0  0
 13 30  1  0  0  0  0
 13 31  1  0  0  0  0
 13 32  1  0  0  0  0
 18 33  1  0  0  0  0
 18 34  1  0  0  0  0
 18 35  1  0  0  0  0
 20 36  1  0  0  0  0
 20 37  1  0  0  0  0
 20 38  1  0  0  0  0
M  END
