 xtb: 6.7.1 (edcfbbe)
          04092505213D

 41 40  0     0  0            999 V2000
    5.8431   -0.5851   -1.0509 C   0  0  0  0  0  0  0  0  0  0  0  0
    4.5609    0.2219   -1.0539 C   0  0  0  0  0  0  0  0  0  0  0  0
    3.5547   -0.5415   -0.3558 O   0  0  0  0  0  0  0  0  0  0  0  0
    2.2430    0.1524    0.2118 P   0  0  0  0  0  0  0  0  0  0  0  0
    2.5369    1.7242    1.3340 S   0  0  0  0  0  0  0  0  0  0  0  0
    1.5544   -1.0306    0.9875 O   0  0  0  0  0  0  0  0  0  0  0  0
    1.3373   -2.3549    0.4257 C   0  0  0  0  0  0  0  0  0  0  0  0
    1.1262   -3.3087    1.5820 C   0  0  0  0  0  0  0  0  0  0  0  0
    1.1153    0.4889   -1.5696 S   0  0  0  0  0  0  0  0  0  0  0  0
   -0.0344    1.7066   -0.8664 C   0  0  0  0  0  0  0  0  0  0  0  0
   -0.8617    1.1515    0.6454 S   0  0  0  0  0  0  0  0  0  0  0  0
   -2.3869   -0.0432   -0.2745 P   0  0  0  0  0  0  0  0  0  0  0  0
   -1.8077   -1.3973   -1.5596 S   0  0  0  0  0  0  0  0  0  0  0  0
   -3.3983    0.9495   -0.9569 O   0  0  0  0  0  0  0  0  0  0  0  0
   -4.1380    1.9879   -0.2628 C   0  0  0  0  0  0  0  0  0  0  0  0
   -3.5301    3.3500   -0.5334 C   0  0  0  0  0  0  0  0  0  0  0  0
   -3.1990   -0.5327    1.0006 O   0  0  0  0  0  0  0  0  0  0  0  0
   -2.6459   -1.3981    2.0119 C   0  0  0  0  0  0  0  0  0  0  0  0
   -2.8047   -2.8589    1.6377 C   0  0  0  0  0  0  0  0  0  0  0  0
    6.1665   -0.7667   -0.0297 H   0  0  0  0  0  0  0  0  0  0  0  0
    5.6845   -1.5388   -1.5460 H   0  0  0  0  0  0  0  0  0  0  0  0
    6.6126   -0.0304   -1.5774 H   0  0  0  0  0  0  0  0  0  0  0  0
    4.2030    0.4040   -2.0708 H   0  0  0  0  0  0  0  0  0  0  0  0
    4.6882    1.1804   -0.5400 H   0  0  0  0  0  0  0  0  0  0  0  0
    0.4591   -2.3050   -0.2257 H   0  0  0  0  0  0  0  0  0  0  0  0
    2.2092   -2.6309   -0.1687 H   0  0  0  0  0  0  0  0  0  0  0  0
    0.2875   -2.9812    2.1895 H   0  0  0  0  0  0  0  0  0  0  0  0
    0.9190   -4.2984    1.1880 H   0  0  0  0  0  0  0  0  0  0  0  0
    2.0162   -3.3446    2.2039 H   0  0  0  0  0  0  0  0  0  0  0  0
   -0.7693    1.9192   -1.6404 H   0  0  0  0  0  0  0  0  0  0  0  0
    0.5251    2.5988   -0.5880 H   0  0  0  0  0  0  0  0  0  0  0  0
   -5.1473    1.9173   -0.6711 H   0  0  0  0  0  0  0  0  0  0  0  0
   -4.1557    1.7625    0.8043 H   0  0  0  0  0  0  0  0  0  0  0  0
   -4.1773    4.1131   -0.1126 H   0  0  0  0  0  0  0  0  0  0  0  0
   -2.5473    3.4328   -0.0754 H   0  0  0  0  0  0  0  0  0  0  0  0
   -3.4394    3.5131   -1.6040 H   0  0  0  0  0  0  0  0  0  0  0  0
   -1.5952   -1.1364    2.1693 H   0  0  0  0  0  0  0  0  0  0  0  0
   -3.2156   -1.1559    2.9114 H   0  0  0  0  0  0  0  0  0  0  0  0
   -2.4438   -3.4795    2.4517 H   0  0  0  0  0  0  0  0  0  0  0  0
   -3.8521   -3.0822    1.4545 H   0  0  0  0  0  0  0  0  0  0  0  0
   -2.2399   -3.0849    0.7362 H   0  0  0  0  0  0  0  0  0  0  0  0
  1  2  1  0  0  0  0
  2  3  1  0  0  0  0
  3  4  2  0  0  0  0
  4  5  2  0  0  0  0
  4  6  2  0  0  0  0
  6  7  1  0  0  0  0
  7  8  1  0  0  0  0
  4  9  1  0  0  0  0
  9 10  1  0  0  0  0
 10 11  1  0  0  0  0
 11 12  1  0  0  0  0
 12 13  2  0  0  0  0
 12 14  2  0  0  0  0
 14 15  1  0  0  0  0
 15 16  1  0  0  0  0
 12 17  2  0  0  0  0
 17 18  1  0  0  0  0
 18 19  1  0  0  0  0
  1 20  1  0  0  0  0
  1 21  1  0  0  0  0
  1 22  1  0  0  0  0
  2 23  1  0  0  0  0
  2 24  1  0  0  0  0
  7 25  1  0  0  0  0
  7 26  1  0  0  0  0
  8 27  1  0  0  0  0
  8 28  1  0  0  0  0
  8 29  1  0  0  0  0
 10 30  1  0  0  0  0
 10 31  1  0  0  0  0
 15 32  1  0  0  0  0
 15 33  1  0  0  0  0
 16 34  1  0  0  0  0
 16 35  1  0  0  0  0
 16 36  1  0  0  0  0
 18 37  1  0  0  0  0
 18 38  1  0  0  0  0
 19 39  1  0  0  0  0
 19 40  1  0  0  0  0
 19 41  1  0  0  0  0
M  END
