 xtb: 6.7.1 (edcfbbe)
          04092505213D

 41 40  0     0  0            999 V2000
    1.0774   -1.6028   -2.2474 C   0  0  0  0  0  0  0  0  0  0  0  0
    2.4596   -1.0239   -2.0208 C   0  0  0  0  0  0  0  0  0  0  0  0
    2.4552    0.0197   -1.0192 O   0  0  0  0  0  0  0  0  0  0  0  0
    2.5187   -0.1610    0.5481 P   0  0  0  0  0  0  0  0  0  0  0  0
    3.0030    1.5554    1.3566 S   0  0  0  0  0  0  0  0  0  0  0  0
    3.5297   -1.3795    0.6797 O   0  0  0  0  0  0  0  0  0  0  0  0
    3.6972   -2.1969    1.8547 C   0  0  0  0  0  0  0  0  0  0  0  0
    4.0220   -1.3864    3.0914 C   0  0  0  0  0  0  0  0  0  0  0  0
    0.6850   -0.9813    1.2620 S   0  0  0  0  0  0  0  0  0  0  0  0
   -0.1829    0.5909    1.4353 C   0  0  0  0  0  0  0  0  0  0  0  0
   -0.4357    1.4505   -0.1502 S   0  0  0  0  0  0  0  0  0  0  0  0
   -2.2228    0.4943   -0.7431 P   0  0  0  0  0  0  0  0  0  0  0  0
   -2.9273    1.0456   -2.4872 S   0  0  0  0  0  0  0  0  0  0  0  0
   -3.2618    0.6636    0.4626 O   0  0  0  0  0  0  0  0  0  0  0  0
   -4.2057    1.7443    0.4973 C   0  0  0  0  0  0  0  0  0  0  0  0
   -3.5326    3.0683    0.7985 C   0  0  0  0  0  0  0  0  0  0  0  0
   -1.7707   -1.0081   -0.5383 O   0  0  0  0  0  0  0  0  0  0  0  0
   -2.6796   -2.1326   -0.5546 C   0  0  0  0  0  0  0  0  0  0  0  0
   -2.9326   -2.6188   -1.9673 C   0  0  0  0  0  0  0  0  0  0  0  0
    0.7334   -2.1407   -1.3668 H   0  0  0  0  0  0  0  0  0  0  0  0
    0.3671   -0.8079   -2.4711 H   0  0  0  0  0  0  0  0  0  0  0  0
    1.1161   -2.2867   -3.0899 H   0  0  0  0  0  0  0  0  0  0  0  0
    2.8246   -0.5140   -2.9142 H   0  0  0  0  0  0  0  0  0  0  0  0
    3.1682   -1.7971   -1.7191 H   0  0  0  0  0  0  0  0  0  0  0  0
    2.7808   -2.7752    2.0004 H   0  0  0  0  0  0  0  0  0  0  0  0
    4.5196   -2.8627    1.5868 H   0  0  0  0  0  0  0  0  0  0  0  0
    4.2222   -2.0581    3.9198 H   0  0  0  0  0  0  0  0  0  0  0  0
    4.8929   -0.7593    2.9164 H   0  0  0  0  0  0  0  0  0  0  0  0
    3.1835   -0.7417    3.3497 H   0  0  0  0  0  0  0  0  0  0  0  0
    0.4234    1.2642    2.0419 H   0  0  0  0  0  0  0  0  0  0  0  0
   -1.1430    0.3806    1.8991 H   0  0  0  0  0  0  0  0  0  0  0  0
   -4.7186    1.7877   -0.4690 H   0  0  0  0  0  0  0  0  0  0  0  0
   -4.9092    1.4604    1.2812 H   0  0  0  0  0  0  0  0  0  0  0  0
   -4.2860    3.8452    0.8794 H   0  0  0  0  0  0  0  0  0  0  0  0
   -2.9737    3.0120    1.7292 H   0  0  0  0  0  0  0  0  0  0  0  0
   -2.8463    3.3264   -0.0080 H   0  0  0  0  0  0  0  0  0  0  0  0
   -2.1662   -2.8883    0.0432 H   0  0  0  0  0  0  0  0  0  0  0  0
   -3.6109   -1.8438   -0.0624 H   0  0  0  0  0  0  0  0  0  0  0  0
   -3.4187   -1.8421   -2.5542 H   0  0  0  0  0  0  0  0  0  0  0  0
   -1.9942   -2.8801   -2.4485 H   0  0  0  0  0  0  0  0  0  0  0  0
   -3.5755   -3.4928   -1.9345 H   0  0  0  0  0  0  0  0  0  0  0  0
  1  2  1  0  0  0  0
  2  3  1  0  0  0  0
  3  4  2  0  0  0  0
  4  5  2  0  0  0  0
  4  6  2  0  0  0  0
  6  7  1  0  0  0  0
  7  8  1  0  0  0  0
  4  9  1  0  0  0  0
  9 10  1  0  0  0  0
 10 11  1  0  0  0  0
 11 12  1  0  0  0  0
 12 13  2  0  0  0  0
 12 14  1  0  0  0  0
 14 15  1  0  0  0  0
 15 16  1  0  0  0  0
 12 17  2  0  0  0  0
 17 18  1  0  0  0  0
 18 19  1  0  0  0  0
  1 20  1  0  0  0  0
  1 21  1  0  0  0  0
  1 22  1  0  0  0  0
  2 23  1  0  0  0  0
  2 24  1  0  0  0  0
  7 25  1  0  0  0  0
  7 26  1  0  0  0  0
  8 27  1  0  0  0  0
  8 28  1  0  0  0  0
  8 29  1  0  0  0  0
 10 30  1  0  0  0  0
 10 31  1  0  0  0  0
 15 32  1  0  0  0  0
 15 33  1  0  0  0  0
 16 34  1  0  0  0  0
 16 35  1  0  0  0  0
 16 36  1  0  0  0  0
 18 37  1  0  0  0  0
 18 38  1  0  0  0  0
 19 39  1  0  0  0  0
 19 40  1  0  0  0  0
 19 41  1  0  0  0  0
M  END
