 xtb: 6.7.1 (edcfbbe)
          04092505213D

 41 40  0     0  0            999 V2000
    3.5242    1.6472   -1.9350 C   0  0  0  0  0  0  0  0  0  0  0  0
    3.4126    0.1428   -2.0670 C   0  0  0  0  0  0  0  0  0  0  0  0
    2.2588   -0.3788   -1.3719 O   0  0  0  0  0  0  0  0  0  0  0  0
    2.0260   -0.2643    0.1817 P   0  0  0  0  0  0  0  0  0  0  0  0
    1.3581    1.3996    0.9938 S   0  0  0  0  0  0  0  0  0  0  0  0
    3.4718   -0.6644    0.7247 O   0  0  0  0  0  0  0  0  0  0  0  0
    3.8298   -0.5738    2.1163 C   0  0  0  0  0  0  0  0  0  0  0  0
    5.3341   -0.4111    2.2071 C   0  0  0  0  0  0  0  0  0  0  0  0
    0.8374   -1.9777    0.5104 S   0  0  0  0  0  0  0  0  0  0  0  0
   -0.4712   -1.2889    1.5807 C   0  0  0  0  0  0  0  0  0  0  0  0
   -2.1263   -1.3540    0.8519 S   0  0  0  0  0  0  0  0  0  0  0  0
   -2.0318    0.3246   -0.4562 P   0  0  0  0  0  0  0  0  0  0  0  0
   -0.7188    0.3199   -1.9075 S   0  0  0  0  0  0  0  0  0  0  0  0
   -1.8502    1.5676    0.4926 O   0  0  0  0  0  0  0  0  0  0  0  0
   -2.7022    1.8790    1.6235 C   0  0  0  0  0  0  0  0  0  0  0  0
   -3.8112    2.8286    1.2206 C   0  0  0  0  0  0  0  0  0  0  0  0
   -3.5408    0.4495   -0.9421 O   0  0  0  0  0  0  0  0  0  0  0  0
   -4.0423   -0.2447   -2.0976 C   0  0  0  0  0  0  0  0  0  0  0  0
   -4.0576   -1.7467   -1.9017 C   0  0  0  0  0  0  0  0  0  0  0  0
    2.6023    2.1195   -2.2694 H   0  0  0  0  0  0  0  0  0  0  0  0
    3.6940    1.9214   -0.8941 H   0  0  0  0  0  0  0  0  0  0  0  0
    4.3524    2.0054   -2.5382 H   0  0  0  0  0  0  0  0  0  0  0  0
    4.3030   -0.3556   -1.6774 H   0  0  0  0  0  0  0  0  0  0  0  0
    3.2353   -0.1561   -3.1014 H   0  0  0  0  0  0  0  0  0  0  0  0
    3.3072    0.2830    2.5558 H   0  0  0  0  0  0  0  0  0  0  0  0
    3.4983   -1.4916    2.6085 H   0  0  0  0  0  0  0  0  0  0  0  0
    5.6433    0.5085    1.7178 H   0  0  0  0  0  0  0  0  0  0  0  0
    5.6239   -0.3739    3.2520 H   0  0  0  0  0  0  0  0  0  0  0  0
    5.8281   -1.2503    1.7260 H   0  0  0  0  0  0  0  0  0  0  0  0
   -0.2097   -0.2524    1.8169 H   0  0  0  0  0  0  0  0  0  0  0  0
   -0.5210   -1.9033    2.4754 H   0  0  0  0  0  0  0  0  0  0  0  0
   -3.1080    0.9481    2.0294 H   0  0  0  0  0  0  0  0  0  0  0  0
   -2.0243    2.3392    2.3456 H   0  0  0  0  0  0  0  0  0  0  0  0
   -4.4751    2.3512    0.5052 H   0  0  0  0  0  0  0  0  0  0  0  0
   -4.3753    3.1073    2.1052 H   0  0  0  0  0  0  0  0  0  0  0  0
   -3.3894    3.7217    0.7673 H   0  0  0  0  0  0  0  0  0  0  0  0
   -5.0489    0.1559   -2.2250 H   0  0  0  0  0  0  0  0  0  0  0  0
   -3.4215    0.0255   -2.9575 H   0  0  0  0  0  0  0  0  0  0  0  0
   -4.5610   -2.2130   -2.7425 H   0  0  0  0  0  0  0  0  0  0  0  0
   -3.0374   -2.1250   -1.8492 H   0  0  0  0  0  0  0  0  0  0  0  0
   -4.5746   -2.0038   -0.9806 H   0  0  0  0  0  0  0  0  0  0  0  0
  1  2  1  0  0  0  0
  2  3  1  0  0  0  0
  3  4  2  0  0  0  0
  4  5  2  0  0  0  0
  4  6  2  0  0  0  0
  6  7  1  0  0  0  0
  7  8  1  0  0  0  0
  4  9  1  0  0  0  0
  9 10  1  0  0  0  0
 10 11  1  0  0  0  0
 11 12  1  0  0  0  0
 12 13  2  0  0  0  0
 12 14  2  0  0  0  0
 14 15  1  0  0  0  0
 15 16  1  0  0  0  0
 12 17  2  0  0  0  0
 17 18  1  0  0  0  0
 18 19  1  0  0  0  0
  1 20  1  0  0  0  0
  1 21  1  0  0  0  0
  1 22  1  0  0  0  0
  2 23  1  0  0  0  0
  2 24  1  0  0  0  0
  7 25  1  0  0  0  0
  7 26  1  0  0  0  0
  8 27  1  0  0  0  0
  8 28  1  0  0  0  0
  8 29  1  0  0  0  0
 10 30  1  0  0  0  0
 10 31  1  0  0  0  0
 15 32  1  0  0  0  0
 15 33  1  0  0  0  0
 16 34  1  0  0  0  0
 16 35  1  0  0  0  0
 16 36  1  0  0  0  0
 18 37  1  0  0  0  0
 18 38  1  0  0  0  0
 19 39  1  0  0  0  0
 19 40  1  0  0  0  0
 19 41  1  0  0  0  0
M  END
