 xtb: 6.7.1 (edcfbbe)
          04092505203D

 41 40  0     0  0            999 V2000
    4.8303   -1.0135   -1.1121 C   0  0  0  0  0  0  0  0  0  0  0  0
    4.4904   -0.7709    0.3437 C   0  0  0  0  0  0  0  0  0  0  0  0
    3.4854    0.2426    0.5312 O   0  0  0  0  0  0  0  0  0  0  0  0
    2.0692    0.3103   -0.1894 P   0  0  0  0  0  0  0  0  0  0  0  0
    2.0515    0.8920   -2.0661 S   0  0  0  0  0  0  0  0  0  0  0  0
    1.2903    1.2483    0.8243 O   0  0  0  0  0  0  0  0  0  0  0  0
    1.2317    2.6757    0.6613 C   0  0  0  0  0  0  0  0  0  0  0  0
    2.5733    3.3203    0.9339 C   0  0  0  0  0  0  0  0  0  0  0  0
    1.2644   -1.5855    0.2395 S   0  0  0  0  0  0  0  0  0  0  0  0
    0.0560   -1.7711   -1.1173 C   0  0  0  0  0  0  0  0  0  0  0  0
   -1.6178   -2.0523   -0.5079 S   0  0  0  0  0  0  0  0  0  0  0  0
   -2.0241   -0.0761    0.1689 P   0  0  0  0  0  0  0  0  0  0  0  0
   -1.4323    1.3379   -1.0522 S   0  0  0  0  0  0  0  0  0  0  0  0
   -1.3886    0.1060    1.5949 O   0  0  0  0  0  0  0  0  0  0  0  0
   -1.3257   -0.8718    2.6659 C   0  0  0  0  0  0  0  0  0  0  0  0
   -2.6694   -1.4754    3.0091 C   0  0  0  0  0  0  0  0  0  0  0  0
   -3.5794   -0.1252    0.4776 O   0  0  0  0  0  0  0  0  0  0  0  0
   -4.5778   -0.2642   -0.5530 C   0  0  0  0  0  0  0  0  0  0  0  0
   -5.0940    1.0909   -0.9961 C   0  0  0  0  0  0  0  0  0  0  0  0
    5.1193   -0.0837   -1.5963 H   0  0  0  0  0  0  0  0  0  0  0  0
    5.6498   -1.7220   -1.1757 H   0  0  0  0  0  0  0  0  0  0  0  0
    3.9678   -1.4189   -1.6392 H   0  0  0  0  0  0  0  0  0  0  0  0
    5.3494   -0.3809    0.8930 H   0  0  0  0  0  0  0  0  0  0  0  0
    4.1353   -1.6908    0.8166 H   0  0  0  0  0  0  0  0  0  0  0  0
    0.8874    2.8978   -0.3550 H   0  0  0  0  0  0  0  0  0  0  0  0
    0.4679    2.9900    1.3745 H   0  0  0  0  0  0  0  0  0  0  0  0
    2.9306    3.0389    1.9208 H   0  0  0  0  0  0  0  0  0  0  0  0
    3.2954    2.9877    0.1889 H   0  0  0  0  0  0  0  0  0  0  0  0
    2.4725    4.3994    0.8745 H   0  0  0  0  0  0  0  0  0  0  0  0
    0.3249   -2.6549   -1.6897 H   0  0  0  0  0  0  0  0  0  0  0  0
    0.0860   -0.8708   -1.7387 H   0  0  0  0  0  0  0  0  0  0  0  0
   -0.6109   -1.6467    2.3740 H   0  0  0  0  0  0  0  0  0  0  0  0
   -0.9176   -0.2941    3.4968 H   0  0  0  0  0  0  0  0  0  0  0  0
   -2.5578   -2.0914    3.8962 H   0  0  0  0  0  0  0  0  0  0  0  0
   -3.3968   -0.6918    3.2038 H   0  0  0  0  0  0  0  0  0  0  0  0
   -3.0278   -2.0966    2.1911 H   0  0  0  0  0  0  0  0  0  0  0  0
   -4.1539   -0.8173   -1.3953 H   0  0  0  0  0  0  0  0  0  0  0  0
   -5.3688   -0.8566   -0.0893 H   0  0  0  0  0  0  0  0  0  0  0  0
   -5.4838    1.6396   -0.1434 H   0  0  0  0  0  0  0  0  0  0  0  0
   -4.2913    1.6709   -1.4466 H   0  0  0  0  0  0  0  0  0  0  0  0
   -5.8839    0.9520   -1.7271 H   0  0  0  0  0  0  0  0  0  0  0  0
  1  2  1  0  0  0  0
  2  3  1  0  0  0  0
  3  4  2  0  0  0  0
  4  5  2  0  0  0  0
  4  6  2  0  0  0  0
  6  7  1  0  0  0  0
  7  8  1  0  0  0  0
  4  9  1  0  0  0  0
  9 10  1  0  0  0  0
 10 11  1  0  0  0  0
 11 12  1  0  0  0  0
 12 13  2  0  0  0  0
 12 14  2  0  0  0  0
 14 15  1  0  0  0  0
 15 16  1  0  0  0  0
 12 17  2  0  0  0  0
 17 18  1  0  0  0  0
 18 19  1  0  0  0  0
  1 20  1  0  0  0  0
  1 21  1  0  0  0  0
  1 22  1  0  0  0  0
  2 23  1  0  0  0  0
  2 24  1  0  0  0  0
  7 25  1  0  0  0  0
  7 26  1  0  0  0  0
  8 27  1  0  0  0  0
  8 28  1  0  0  0  0
  8 29  1  0  0  0  0
 10 30  1  0  0  0  0
 10 31  1  0  0  0  0
 15 32  1  0  0  0  0
 15 33  1  0  0  0  0
 16 34  1  0  0  0  0
 16 35  1  0  0  0  0
 16 36  1  0  0  0  0
 18 37  1  0  0  0  0
 18 38  1  0  0  0  0
 19 39  1  0  0  0  0
 19 40  1  0  0  0  0
 19 41  1  0  0  0  0
M  END
