 xtb: 6.7.1 (edcfbbe)
          04092505213D

 41 40  0     0  0            999 V2000
    3.5327    2.3022    1.6911 C   0  0  0  0  0  0  0  0  0  0  0  0
    2.5954    1.9096    0.5680 C   0  0  0  0  0  0  0  0  0  0  0  0
    1.7255    0.8284    0.9915 O   0  0  0  0  0  0  0  0  0  0  0  0
    1.9557   -0.6800    0.5952 P   0  0  0  0  0  0  0  0  0  0  0  0
    0.5646   -1.7790    1.4277 S   0  0  0  0  0  0  0  0  0  0  0  0
    3.4653   -0.9116    1.0261 O   0  0  0  0  0  0  0  0  0  0  0  0
    4.3095   -1.9793    0.5555 C   0  0  0  0  0  0  0  0  0  0  0  0
    3.6898   -3.3467    0.7515 C   0  0  0  0  0  0  0  0  0  0  0  0
    2.0708   -0.7571   -1.5367 S   0  0  0  0  0  0  0  0  0  0  0  0
    0.3039   -0.7137   -1.8671 C   0  0  0  0  0  0  0  0  0  0  0  0
   -0.4190    0.8960   -1.4057 S   0  0  0  0  0  0  0  0  0  0  0  0
   -2.3239    0.2625   -0.6828 P   0  0  0  0  0  0  0  0  0  0  0  0
   -2.6173   -1.6642   -0.5514 S   0  0  0  0  0  0  0  0  0  0  0  0
   -3.3607    0.9312   -1.6585 O   0  0  0  0  0  0  0  0  0  0  0  0
   -3.3725    2.3439   -1.9876 C   0  0  0  0  0  0  0  0  0  0  0  0
   -4.3176    3.1064   -1.0825 C   0  0  0  0  0  0  0  0  0  0  0  0
   -2.5175    1.1095    0.6505 O   0  0  0  0  0  0  0  0  0  0  0  0
   -1.8464    0.7803    1.8791 C   0  0  0  0  0  0  0  0  0  0  0  0
   -2.4904    1.5870    2.9873 C   0  0  0  0  0  0  0  0  0  0  0  0
    2.9629    2.5857    2.5715 H   0  0  0  0  0  0  0  0  0  0  0  0
    4.1802    1.4681    1.9483 H   0  0  0  0  0  0  0  0  0  0  0  0
    4.1391    3.1429    1.3693 H   0  0  0  0  0  0  0  0  0  0  0  0
    3.1483    1.5944   -0.3210 H   0  0  0  0  0  0  0  0  0  0  0  0
    1.9165    2.7231    0.3049 H   0  0  0  0  0  0  0  0  0  0  0  0
    4.5264   -1.8009   -0.5012 H   0  0  0  0  0  0  0  0  0  0  0  0
    5.2197   -1.8670    1.1472 H   0  0  0  0  0  0  0  0  0  0  0  0
    2.7901   -3.4431    0.1447 H   0  0  0  0  0  0  0  0  0  0  0  0
    4.3994   -4.1119    0.4541 H   0  0  0  0  0  0  0  0  0  0  0  0
    3.4155   -3.4941    1.7935 H   0  0  0  0  0  0  0  0  0  0  0  0
   -0.2061   -1.4969   -1.2974 H   0  0  0  0  0  0  0  0  0  0  0  0
    0.1859   -0.8644   -2.9373 H   0  0  0  0  0  0  0  0  0  0  0  0
   -2.3518    2.7310   -1.9165 H   0  0  0  0  0  0  0  0  0  0  0  0
   -3.7064    2.3722   -3.0263 H   0  0  0  0  0  0  0  0  0  0  0  0
   -3.9743    3.0617   -0.0527 H   0  0  0  0  0  0  0  0  0  0  0  0
   -4.3567    4.1425   -1.4043 H   0  0  0  0  0  0  0  0  0  0  0  0
   -5.3132    2.6751   -1.1378 H   0  0  0  0  0  0  0  0  0  0  0  0
   -1.9389   -0.2966    2.0555 H   0  0  0  0  0  0  0  0  0  0  0  0
   -0.7835    1.0203    1.7734 H   0  0  0  0  0  0  0  0  0  0  0  0
   -2.0007    1.3502    3.9260 H   0  0  0  0  0  0  0  0  0  0  0  0
   -2.3869    2.6489    2.7836 H   0  0  0  0  0  0  0  0  0  0  0  0
   -3.5457    1.3394    3.0608 H   0  0  0  0  0  0  0  0  0  0  0  0
  1  2  1  0  0  0  0
  2  3  1  0  0  0  0
  3  4  2  0  0  0  0
  4  5  2  0  0  0  0
  4  6  2  0  0  0  0
  6  7  1  0  0  0  0
  7  8  1  0  0  0  0
  4  9  1  0  0  0  0
  9 10  1  0  0  0  0
 10 11  1  0  0  0  0
 11 12  1  0  0  0  0
 12 13  2  0  0  0  0
 12 14  2  0  0  0  0
 14 15  1  0  0  0  0
 15 16  1  0  0  0  0
 12 17  2  0  0  0  0
 17 18  1  0  0  0  0
 18 19  1  0  0  0  0
  1 20  1  0  0  0  0
  1 21  1  0  0  0  0
  1 22  1  0  0  0  0
  2 23  1  0  0  0  0
  2 24  1  0  0  0  0
  7 25  1  0  0  0  0
  7 26  1  0  0  0  0
  8 27  1  0  0  0  0
  8 28  1  0  0  0  0
  8 29  1  0  0  0  0
 10 30  1  0  0  0  0
 10 31  1  0  0  0  0
 15 32  1  0  0  0  0
 15 33  1  0  0  0  0
 16 34  1  0  0  0  0
 16 35  1  0  0  0  0
 16 36  1  0  0  0  0
 18 37  1  0  0  0  0
 18 38  1  0  0  0  0
 19 39  1  0  0  0  0
 19 40  1  0  0  0  0
 19 41  1  0  0  0  0
M  END
