 xtb: 6.7.1 (edcfbbe)
          04092505203D

 41 40  0     0  0            999 V2000
    3.3438   -1.6970   -2.7866 C   0  0  0  0  0  0  0  0  0  0  0  0
    4.1294   -1.1231   -1.6268 C   0  0  0  0  0  0  0  0  0  0  0  0
    3.5177    0.0542   -1.0652 O   0  0  0  0  0  0  0  0  0  0  0  0
    2.0121    0.1561   -0.5657 P   0  0  0  0  0  0  0  0  0  0  0  0
    0.6497    0.4566   -1.9378 S   0  0  0  0  0  0  0  0  0  0  0  0
    2.0684    1.4130    0.3801 O   0  0  0  0  0  0  0  0  0  0  0  0
    3.0625    1.6714    1.4025 C   0  0  0  0  0  0  0  0  0  0  0  0
    2.5802    1.2166    2.7662 C   0  0  0  0  0  0  0  0  0  0  0  0
    1.8335   -1.5981    0.6281 S   0  0  0  0  0  0  0  0  0  0  0  0
    0.2133   -1.3116    1.3790 C   0  0  0  0  0  0  0  0  0  0  0  0
   -1.1942   -1.5691    0.2542 S   0  0  0  0  0  0  0  0  0  0  0  0
   -2.0829    0.3676    0.3424 P   0  0  0  0  0  0  0  0  0  0  0  0
   -1.1043    1.7274    1.3503 S   0  0  0  0  0  0  0  0  0  0  0  0
   -3.5686    0.0440    0.8351 O   0  0  0  0  0  0  0  0  0  0  0  0
   -3.9221   -0.7500    1.9812 C   0  0  0  0  0  0  0  0  0  0  0  0
   -3.4258   -0.1559    3.2837 C   0  0  0  0  0  0  0  0  0  0  0  0
   -2.3843    0.8533   -1.1194 O   0  0  0  0  0  0  0  0  0  0  0  0
   -3.0524    0.0250   -2.1055 C   0  0  0  0  0  0  0  0  0  0  0  0
   -2.7783    0.6217   -3.4690 C   0  0  0  0  0  0  0  0  0  0  0  0
    2.3686   -2.0424   -2.4456 H   0  0  0  0  0  0  0  0  0  0  0  0
    3.1892   -0.9400   -3.5520 H   0  0  0  0  0  0  0  0  0  0  0  0
    3.8879   -2.5344   -3.2111 H   0  0  0  0  0  0  0  0  0  0  0  0
    5.1126   -0.7719   -1.9451 H   0  0  0  0  0  0  0  0  0  0  0  0
    4.2375   -1.8629   -0.8289 H   0  0  0  0  0  0  0  0  0  0  0  0
    3.9974    1.1845    1.1193 H   0  0  0  0  0  0  0  0  0  0  0  0
    3.1856    2.7551    1.3725 H   0  0  0  0  0  0  0  0  0  0  0  0
    2.5576    0.1315    2.8303 H   0  0  0  0  0  0  0  0  0  0  0  0
    3.2570    1.5995    3.5234 H   0  0  0  0  0  0  0  0  0  0  0  0
    1.5824    1.6100    2.9506 H   0  0  0  0  0  0  0  0  0  0  0  0
    0.1590   -0.2869    1.7603 H   0  0  0  0  0  0  0  0  0  0  0  0
    0.1353   -2.0444    2.1781 H   0  0  0  0  0  0  0  0  0  0  0  0
   -5.0127   -0.7748    1.9460 H   0  0  0  0  0  0  0  0  0  0  0  0
   -3.5243   -1.7588    1.8357 H   0  0  0  0  0  0  0  0  0  0  0  0
   -3.7962   -0.7500    4.1128 H   0  0  0  0  0  0  0  0  0  0  0  0
   -2.3375   -0.1476    3.3068 H   0  0  0  0  0  0  0  0  0  0  0  0
   -3.7753    0.8683    3.3885 H   0  0  0  0  0  0  0  0  0  0  0  0
   -2.6535   -0.9913   -2.0334 H   0  0  0  0  0  0  0  0  0  0  0  0
   -4.1182    0.0191   -1.8677 H   0  0  0  0  0  0  0  0  0  0  0  0
   -3.2602    0.0151   -4.2285 H   0  0  0  0  0  0  0  0  0  0  0  0
   -3.1594    1.6377   -3.5160 H   0  0  0  0  0  0  0  0  0  0  0  0
   -1.7055    0.6433   -3.6476 H   0  0  0  0  0  0  0  0  0  0  0  0
  1  2  1  0  0  0  0
  2  3  1  0  0  0  0
  3  4  2  0  0  0  0
  4  5  2  0  0  0  0
  4  6  2  0  0  0  0
  6  7  1  0  0  0  0
  7  8  1  0  0  0  0
  4  9  1  0  0  0  0
  9 10  1  0  0  0  0
 10 11  1  0  0  0  0
 11 12  1  0  0  0  0
 12 13  2  0  0  0  0
 12 14  2  0  0  0  0
 14 15  1  0  0  0  0
 15 16  1  0  0  0  0
 12 17  2  0  0  0  0
 17 18  1  0  0  0  0
 18 19  1  0  0  0  0
  1 20  1  0  0  0  0
  1 21  1  0  0  0  0
  1 22  1  0  0  0  0
  2 23  1  0  0  0  0
  2 24  1  0  0  0  0
  7 25  1  0  0  0  0
  7 26  1  0  0  0  0
  8 27  1  0  0  0  0
  8 28  1  0  0  0  0
  8 29  1  0  0  0  0
 10 30  1  0  0  0  0
 10 31  1  0  0  0  0
 15 32  1  0  0  0  0
 15 33  1  0  0  0  0
 16 34  1  0  0  0  0
 16 35  1  0  0  0  0
 16 36  1  0  0  0  0
 18 37  1  0  0  0  0
 18 38  1  0  0  0  0
 19 39  1  0  0  0  0
 19 40  1  0  0  0  0
 19 41  1  0  0  0  0
M  END
