 xtb: 6.7.1 (edcfbbe)
          04092505213D

 41 40  0     0  0            999 V2000
    3.1739    2.2457   -1.9356 C   0  0  0  0  0  0  0  0  0  0  0  0
    3.8708    1.9661   -0.6190 C   0  0  0  0  0  0  0  0  0  0  0  0
    3.6713    0.6097   -0.1913 O   0  0  0  0  0  0  0  0  0  0  0  0
    2.2940    0.1061    0.4271 P   0  0  0  0  0  0  0  0  0  0  0  0
    1.5051    1.3944    1.6798 S   0  0  0  0  0  0  0  0  0  0  0  0
    2.7227   -1.2886    1.0350 O   0  0  0  0  0  0  0  0  0  0  0  0
    2.8452   -1.5427    2.4537 C   0  0  0  0  0  0  0  0  0  0  0  0
    1.7618   -2.5024    2.9041 C   0  0  0  0  0  0  0  0  0  0  0  0
    1.2104   -0.5396   -1.2807 S   0  0  0  0  0  0  0  0  0  0  0  0
    0.1427   -1.7734   -0.4858 C   0  0  0  0  0  0  0  0  0  0  0  0
   -1.0001   -1.0714    0.7247 S   0  0  0  0  0  0  0  0  0  0  0  0
   -2.2601   -0.0782   -0.6826 P   0  0  0  0  0  0  0  0  0  0  0  0
   -2.4230   -0.9540   -2.4236 S   0  0  0  0  0  0  0  0  0  0  0  0
   -1.7091    1.3849   -0.8784 O   0  0  0  0  0  0  0  0  0  0  0  0
   -1.6505    2.3741    0.1812 C   0  0  0  0  0  0  0  0  0  0  0  0
   -0.8409    3.5454   -0.3310 C   0  0  0  0  0  0  0  0  0  0  0  0
   -3.5804    0.1975    0.1575 O   0  0  0  0  0  0  0  0  0  0  0  0
   -4.3040   -0.7841    0.9249 C   0  0  0  0  0  0  0  0  0  0  0  0
   -4.6658   -2.0128    0.1176 C   0  0  0  0  0  0  0  0  0  0  0  0
    3.3916    3.2603   -2.2533 H   0  0  0  0  0  0  0  0  0  0  0  0
    3.5107    1.5472   -2.6971 H   0  0  0  0  0  0  0  0  0  0  0  0
    2.0954    2.1331   -1.8211 H   0  0  0  0  0  0  0  0  0  0  0  0
    3.5039    2.6357    0.1669 H   0  0  0  0  0  0  0  0  0  0  0  0
    4.9535    2.0616   -0.7101 H   0  0  0  0  0  0  0  0  0  0  0  0
    3.8408   -1.9682    2.5870 H   0  0  0  0  0  0  0  0  0  0  0  0
    2.7739   -0.5940    2.9946 H   0  0  0  0  0  0  0  0  0  0  0  0
    1.8886   -2.7065    3.9623 H   0  0  0  0  0  0  0  0  0  0  0  0
    0.7784   -2.0625    2.7436 H   0  0  0  0  0  0  0  0  0  0  0  0
    1.8284   -3.4354    2.3512 H   0  0  0  0  0  0  0  0  0  0  0  0
    0.7528   -2.5086    0.0321 H   0  0  0  0  0  0  0  0  0  0  0  0
   -0.4315   -2.2258   -1.2964 H   0  0  0  0  0  0  0  0  0  0  0  0
   -2.6731    2.6659    0.4254 H   0  0  0  0  0  0  0  0  0  0  0  0
   -1.1797    1.9254    1.0612 H   0  0  0  0  0  0  0  0  0  0  0  0
   -1.2689    3.9204   -1.2561 H   0  0  0  0  0  0  0  0  0  0  0  0
   -0.8414    4.3297    0.4187 H   0  0  0  0  0  0  0  0  0  0  0  0
    0.1852    3.2377   -0.5149 H   0  0  0  0  0  0  0  0  0  0  0  0
   -3.6937   -1.0543    1.7911 H   0  0  0  0  0  0  0  0  0  0  0  0
   -5.1945   -0.2449    1.2527 H   0  0  0  0  0  0  0  0  0  0  0  0
   -5.2815   -2.6714    0.7214 H   0  0  0  0  0  0  0  0  0  0  0  0
   -5.2113   -1.7302   -0.7797 H   0  0  0  0  0  0  0  0  0  0  0  0
   -3.7645   -2.5448   -0.1834 H   0  0  0  0  0  0  0  0  0  0  0  0
  1  2  1  0  0  0  0
  2  3  1  0  0  0  0
  3  4  2  0  0  0  0
  4  5  2  0  0  0  0
  4  6  2  0  0  0  0
  6  7  1  0  0  0  0
  7  8  1  0  0  0  0
  4  9  1  0  0  0  0
  9 10  1  0  0  0  0
 10 11  1  0  0  0  0
 11 12  1  0  0  0  0
 12 13  2  0  0  0  0
 12 14  2  0  0  0  0
 14 15  1  0  0  0  0
 15 16  1  0  0  0  0
 12 17  2  0  0  0  0
 17 18  1  0  0  0  0
 18 19  1  0  0  0  0
  1 20  1  0  0  0  0
  1 21  1  0  0  0  0
  1 22  1  0  0  0  0
  2 23  1  0  0  0  0
  2 24  1  0  0  0  0
  7 25  1  0  0  0  0
  7 26  1  0  0  0  0
  8 27  1  0  0  0  0
  8 28  1  0  0  0  0
  8 29  1  0  0  0  0
 10 30  1  0  0  0  0
 10 31  1  0  0  0  0
 15 32  1  0  0  0  0
 15 33  1  0  0  0  0
 16 34  1  0  0  0  0
 16 35  1  0  0  0  0
 16 36  1  0  0  0  0
 18 37  1  0  0  0  0
 18 38  1  0  0  0  0
 19 39  1  0  0  0  0
 19 40  1  0  0  0  0
 19 41  1  0  0  0  0
M  END
