 xtb: 6.7.1 (edcfbbe)
          04092505203D

 41 40  0     0  0            999 V2000
    3.0479    2.2079   -0.1277 C   0  0  0  0  0  0  0  0  0  0  0  0
    2.2799    1.9449    1.1504 C   0  0  0  0  0  0  0  0  0  0  0  0
    1.3544    0.8344    1.0329 O   0  0  0  0  0  0  0  0  0  0  0  0
    1.7357   -0.6761    0.7902 P   0  0  0  0  0  0  0  0  0  0  0  0
    0.3164   -1.8888    1.3893 S   0  0  0  0  0  0  0  0  0  0  0  0
    3.1204   -0.8025    1.5554 O   0  0  0  0  0  0  0  0  0  0  0  0
    3.6770   -2.0667    1.9596 C   0  0  0  0  0  0  0  0  0  0  0  0
    4.0732   -2.9278    0.7784 C   0  0  0  0  0  0  0  0  0  0  0  0
    2.2485   -0.8911   -1.2659 S   0  0  0  0  0  0  0  0  0  0  0  0
    0.5765   -0.8546   -1.9344 C   0  0  0  0  0  0  0  0  0  0  0  0
   -0.2018    0.7927   -1.8126 S   0  0  0  0  0  0  0  0  0  0  0  0
   -1.9277    0.3151   -0.7077 P   0  0  0  0  0  0  0  0  0  0  0  0
   -2.6272   -1.5030   -0.8312 S   0  0  0  0  0  0  0  0  0  0  0  0
   -2.9877    1.3591   -1.2629 O   0  0  0  0  0  0  0  0  0  0  0  0
   -2.7190    2.7834   -1.2915 C   0  0  0  0  0  0  0  0  0  0  0  0
   -4.0471    3.5028   -1.4050 C   0  0  0  0  0  0  0  0  0  0  0  0
   -1.5120    0.8359    0.7481 O   0  0  0  0  0  0  0  0  0  0  0  0
   -2.2102    0.4032    1.9283 C   0  0  0  0  0  0  0  0  0  0  0  0
   -3.6017    0.9961    2.0062 C   0  0  0  0  0  0  0  0  0  0  0  0
    2.3635    2.3104   -0.9672 H   0  0  0  0  0  0  0  0  0  0  0  0
    3.6122    3.1283   -0.0132 H   0  0  0  0  0  0  0  0  0  0  0  0
    3.7381    1.3927   -0.3326 H   0  0  0  0  0  0  0  0  0  0  0  0
    1.6256    2.7809    1.4026 H   0  0  0  0  0  0  0  0  0  0  0  0
    2.9570    1.7357    1.9805 H   0  0  0  0  0  0  0  0  0  0  0  0
    4.5424   -1.7853    2.5614 H   0  0  0  0  0  0  0  0  0  0  0  0
    2.9409   -2.5837    2.5826 H   0  0  0  0  0  0  0  0  0  0  0  0
    4.7063   -2.3682    0.0947 H   0  0  0  0  0  0  0  0  0  0  0  0
    4.6106   -3.7999    1.1371 H   0  0  0  0  0  0  0  0  0  0  0  0
    3.1849   -3.2588    0.2428 H   0  0  0  0  0  0  0  0  0  0  0  0
   -0.0565   -1.5772   -1.4113 H   0  0  0  0  0  0  0  0  0  0  0  0
    0.6646   -1.1044   -2.9886 H   0  0  0  0  0  0  0  0  0  0  0  0
   -2.1854    3.0598   -0.3781 H   0  0  0  0  0  0  0  0  0  0  0  0
   -2.0797    2.9833   -2.1552 H   0  0  0  0  0  0  0  0  0  0  0  0
   -3.8687    4.5715   -1.4646 H   0  0  0  0  0  0  0  0  0  0  0  0
   -4.5691    3.1736   -2.2987 H   0  0  0  0  0  0  0  0  0  0  0  0
   -4.6688    3.2882   -0.5402 H   0  0  0  0  0  0  0  0  0  0  0  0
   -2.2515   -0.6913    1.9270 H   0  0  0  0  0  0  0  0  0  0  0  0
   -1.5722    0.7360    2.7490 H   0  0  0  0  0  0  0  0  0  0  0  0
   -3.5535    2.0820    1.9860 H   0  0  0  0  0  0  0  0  0  0  0  0
   -4.1962    0.6468    1.1619 H   0  0  0  0  0  0  0  0  0  0  0  0
   -4.0757    0.6735    2.9279 H   0  0  0  0  0  0  0  0  0  0  0  0
  1  2  1  0  0  0  0
  2  3  1  0  0  0  0
  3  4  2  0  0  0  0
  4  5  2  0  0  0  0
  4  6  2  0  0  0  0
  6  7  1  0  0  0  0
  7  8  1  0  0  0  0
  4  9  1  0  0  0  0
  9 10  1  0  0  0  0
 10 11  1  0  0  0  0
 11 12  1  0  0  0  0
 12 13  2  0  0  0  0
 12 14  2  0  0  0  0
 14 15  1  0  0  0  0
 15 16  1  0  0  0  0
 12 17  1  0  0  0  0
 17 18  1  0  0  0  0
 18 19  1  0  0  0  0
  1 20  1  0  0  0  0
  1 21  1  0  0  0  0
  1 22  1  0  0  0  0
  2 23  1  0  0  0  0
  2 24  1  0  0  0  0
  7 25  1  0  0  0  0
  7 26  1  0  0  0  0
  8 27  1  0  0  0  0
  8 28  1  0  0  0  0
  8 29  1  0  0  0  0
 10 30  1  0  0  0  0
 10 31  1  0  0  0  0
 15 32  1  0  0  0  0
 15 33  1  0  0  0  0
 16 34  1  0  0  0  0
 16 35  1  0  0  0  0
 16 36  1  0  0  0  0
 18 37  1  0  0  0  0
 18 38  1  0  0  0  0
 19 39  1  0  0  0  0
 19 40  1  0  0  0  0
 19 41  1  0  0  0  0
M  END
