 xtb: 6.7.1 (edcfbbe)
          04092507313D

 38 37  0     0  0            999 V2000
    2.4653   -3.8477   -1.9618 C   0  0  0  0  0  0  0  0  0  0  0  0
    2.8210   -3.5454   -0.5148 C   0  0  0  0  0  0  0  0  0  0  0  0
    2.8656   -2.1210   -0.2914 O   0  0  0  0  0  0  0  0  0  0  0  0
    1.7472   -1.4939   -0.0222 C   0  0  0  0  0  0  0  0  0  0  0  0
    0.6651   -2.0355    0.0971 O   0  0  0  0  0  0  0  0  0  0  0  0
    1.9503   -0.0067    0.1459 C   0  0  0  0  0  0  0  0  0  0  0  0
    1.1083    0.8160   -0.8497 C   0  0  0  0  0  0  0  0  0  0  0  0
    1.6979    1.0673   -1.7323 H   0  0  0  0  0  0  0  0  0  0  0  0
    0.6396    2.0847   -0.1524 C   0  0  0  0  0  0  0  0  0  0  0  0
   -0.4996    2.2466    0.2258 O   0  0  0  0  0  0  0  0  0  0  0  0
    1.6262    2.9250    0.0206 O   0  0  0  0  0  0  0  0  0  0  0  0
    1.3576    4.1681    0.7075 C   0  0  0  0  0  0  0  0  0  0  0  0
    0.8222    5.2137   -0.2563 C   0  0  0  0  0  0  0  0  0  0  0  0
   -0.3691   -0.0210   -1.5281 S   0  0  0  0  0  0  0  0  0  0  0  0
   -1.5073   -0.3183    0.2160 P   0  0  0  0  0  0  0  0  0  0  0  0
   -0.9037   -0.1528    2.0833 S   0  0  0  0  0  0  0  0  0  0  0  0
   -2.7065    0.6541   -0.1977 O   0  0  0  0  0  0  0  0  0  0  0  0
   -3.7935    0.9192    0.6917 C   0  0  0  0  0  0  0  0  0  0  0  0
   -2.2675   -1.7078   -0.0424 O   0  0  0  0  0  0  0  0  0  0  0  0
   -1.9617   -2.9637    0.5577 C   0  0  0  0  0  0  0  0  0  0  0  0
    2.4726   -4.9214   -2.1171 H   0  0  0  0  0  0  0  0  0  0  0  0
    1.4741   -3.4628   -2.1930 H   0  0  0  0  0  0  0  0  0  0  0  0
    3.1856   -3.3831   -2.6291 H   0  0  0  0  0  0  0  0  0  0  0  0
    3.8251   -3.8904   -0.2693 H   0  0  0  0  0  0  0  0  0  0  0  0
    2.0884   -3.9838    0.1684 H   0  0  0  0  0  0  0  0  0  0  0  0
    3.0047    0.2343    0.0268 H   0  0  0  0  0  0  0  0  0  0  0  0
    1.6322    0.2269    1.1671 H   0  0  0  0  0  0  0  0  0  0  0  0
    0.6416    3.9738    1.5109 H   0  0  0  0  0  0  0  0  0  0  0  0
    2.3241    4.4591    1.1182 H   0  0  0  0  0  0  0  0  0  0  0  0
    1.5189    5.3583   -1.0771 H   0  0  0  0  0  0  0  0  0  0  0  0
   -0.1383    4.8971   -0.6569 H   0  0  0  0  0  0  0  0  0  0  0  0
    0.6903    6.1521    0.2720 H   0  0  0  0  0  0  0  0  0  0  0  0
   -4.4498    0.0506    0.7504 H   0  0  0  0  0  0  0  0  0  0  0  0
   -4.3175    1.7715    0.2669 H   0  0  0  0  0  0  0  0  0  0  0  0
   -3.4126    1.1641    1.6853 H   0  0  0  0  0  0  0  0  0  0  0  0
   -2.9115   -3.4816    0.6718 H   0  0  0  0  0  0  0  0  0  0  0  0
   -1.4885   -2.8099    1.5290 H   0  0  0  0  0  0  0  0  0  0  0  0
   -1.2894   -3.5211   -0.0906 H   0  0  0  0  0  0  0  0  0  0  0  0
  1  2  1  0  0  0  0
  2  3  1  0  0  0  0
  3  4  4  0  0  0  0
  4  5  2  0  0  0  0
  4  6  1  0  0  0  0
  6  7  1  0  0  0  0
  7  8  1  0  0  0  0
  7  9  1  0  0  0  0
  9 10  2  0  0  0  0
  9 11  4  0  0  0  0
 11 12  1  0  0  0  0
 12 13  1  0  0  0  0
  7 14  1  0  0  0  0
 14 15  1  0  0  0  0
 15 16  2  0  0  0  0
 15 17  1  0  0  0  0
 17 18  1  0  0  0  0
 15 19  1  0  0  0  0
 19 20  1  0  0  0  0
  1 21  1  0  0  0  0
  1 22  1  0  0  0  0
  1 23  1  0  0  0  0
  2 24  1  0  0  0  0
  2 25  1  0  0  0  0
  6 26  1  0  0  0  0
  6 27  1  0  0  0  0
 12 28  1  0  0  0  0
 12 29  1  0  0  0  0
 13 30  1  0  0  0  0
 13 31  1  0  0  0  0
 13 32  1  0  0  0  0
 18 33  1  0  0  0  0
 18 34  1  0  0  0  0
 18 35  1  0  0  0  0
 20 36  1  0  0  0  0
 20 37  1  0  0  0  0
 20 38  1  0  0  0  0
M  END
