 xtb: 6.7.1 (edcfbbe)
          04092505203D

 41 40  0     0  0            999 V2000
    4.5373    0.7499   -2.0861 C   0  0  0  0  0  0  0  0  0  0  0  0
    4.5718    0.8224   -0.5733 C   0  0  0  0  0  0  0  0  0  0  0  0
    3.6664   -0.1181    0.0274 O   0  0  0  0  0  0  0  0  0  0  0  0
    2.0875    0.0342   -0.0817 P   0  0  0  0  0  0  0  0  0  0  0  0
    1.4805    1.8946    0.0879 S   0  0  0  0  0  0  0  0  0  0  0  0
    1.5603   -0.9747    1.0203 O   0  0  0  0  0  0  0  0  0  0  0  0
    1.3700   -0.5855    2.3942 C   0  0  0  0  0  0  0  0  0  0  0  0
    2.6778   -0.2529    3.0778 C   0  0  0  0  0  0  0  0  0  0  0  0
    1.6554   -1.0866   -1.8135 S   0  0  0  0  0  0  0  0  0  0  0  0
   -0.1110   -1.4535   -1.6261 C   0  0  0  0  0  0  0  0  0  0  0  0
   -1.1860    0.0102   -1.6198 S   0  0  0  0  0  0  0  0  0  0  0  0
   -2.0475   -0.1756    0.3296 P   0  0  0  0  0  0  0  0  0  0  0  0
   -1.6811   -1.8327    1.2987 S   0  0  0  0  0  0  0  0  0  0  0  0
   -3.5887    0.1386    0.0866 O   0  0  0  0  0  0  0  0  0  0  0  0
   -4.5459   -0.8797   -0.2556 C   0  0  0  0  0  0  0  0  0  0  0  0
   -4.2548   -1.5327   -1.5910 C   0  0  0  0  0  0  0  0  0  0  0  0
   -1.5793    1.0999    1.1290 O   0  0  0  0  0  0  0  0  0  0  0  0
   -1.8786    2.4500    0.6918 C   0  0  0  0  0  0  0  0  0  0  0  0
   -3.0683    3.0037    1.4461 C   0  0  0  0  0  0  0  0  0  0  0  0
    4.7102   -0.2701   -2.4197 H   0  0  0  0  0  0  0  0  0  0  0  0
    3.5626    1.0749   -2.4501 H   0  0  0  0  0  0  0  0  0  0  0  0
    5.3022    1.4011   -2.4968 H   0  0  0  0  0  0  0  0  0  0  0  0
    4.3056    1.8279   -0.2303 H   0  0  0  0  0  0  0  0  0  0  0  0
    5.5471    0.5391   -0.1759 H   0  0  0  0  0  0  0  0  0  0  0  0
    0.6847    0.2694    2.4199 H   0  0  0  0  0  0  0  0  0  0  0  0
    0.8807   -1.4524    2.8422 H   0  0  0  0  0  0  0  0  0  0  0  0
    2.4952   -0.0855    4.1346 H   0  0  0  0  0  0  0  0  0  0  0  0
    3.3815   -1.0720    2.9550 H   0  0  0  0  0  0  0  0  0  0  0  0
    3.1049    0.6502    2.6435 H   0  0  0  0  0  0  0  0  0  0  0  0
   -0.2769   -2.0163   -0.7033 H   0  0  0  0  0  0  0  0  0  0  0  0
   -0.3620   -2.0465   -2.5025 H   0  0  0  0  0  0  0  0  0  0  0  0
   -4.5500   -1.6267    0.5439 H   0  0  0  0  0  0  0  0  0  0  0  0
   -5.4970   -0.3455   -0.2691 H   0  0  0  0  0  0  0  0  0  0  0  0
   -5.0784   -2.1893   -1.8525 H   0  0  0  0  0  0  0  0  0  0  0  0
   -4.1337   -0.7790   -2.3650 H   0  0  0  0  0  0  0  0  0  0  0  0
   -3.3423   -2.1236   -1.5250 H   0  0  0  0  0  0  0  0  0  0  0  0
   -0.9676    3.0153    0.9006 H   0  0  0  0  0  0  0  0  0  0  0  0
   -2.0543    2.4418   -0.3874 H   0  0  0  0  0  0  0  0  0  0  0  0
   -3.9628    2.4320    1.2143 H   0  0  0  0  0  0  0  0  0  0  0  0
   -2.8847    2.9542    2.5159 H   0  0  0  0  0  0  0  0  0  0  0  0
   -3.2168    4.0387    1.1550 H   0  0  0  0  0  0  0  0  0  0  0  0
  1  2  1  0  0  0  0
  2  3  1  0  0  0  0
  3  4  2  0  0  0  0
  4  5  2  0  0  0  0
  4  6  2  0  0  0  0
  6  7  1  0  0  0  0
  7  8  1  0  0  0  0
  4  9  1  0  0  0  0
  9 10  1  0  0  0  0
 10 11  1  0  0  0  0
 11 12  1  0  0  0  0
 12 13  2  0  0  0  0
 12 14  2  0  0  0  0
 14 15  1  0  0  0  0
 15 16  1  0  0  0  0
 12 17  2  0  0  0  0
 17 18  1  0  0  0  0
 18 19  1  0  0  0  0
  1 20  1  0  0  0  0
  1 21  1  0  0  0  0
  1 22  1  0  0  0  0
  2 23  1  0  0  0  0
  2 24  1  0  0  0  0
  7 25  1  0  0  0  0
  7 26  1  0  0  0  0
  8 27  1  0  0  0  0
  8 28  1  0  0  0  0
  8 29  1  0  0  0  0
 10 30  1  0  0  0  0
 10 31  1  0  0  0  0
 15 32  1  0  0  0  0
 15 33  1  0  0  0  0
 16 34  1  0  0  0  0
 16 35  1  0  0  0  0
 16 36  1  0  0  0  0
 18 37  1  0  0  0  0
 18 38  1  0  0  0  0
 19 39  1  0  0  0  0
 19 40  1  0  0  0  0
 19 41  1  0  0  0  0
M  END
