 xtb: 6.7.1 (edcfbbe)
          04092505203D

 41 40  0     0  0            999 V2000
    4.6909   -1.3433   -1.1289 C   0  0  0  0  0  0  0  0  0  0  0  0
    4.7106    0.0236   -0.4760 C   0  0  0  0  0  0  0  0  0  0  0  0
    3.5554    0.2459    0.3516 O   0  0  0  0  0  0  0  0  0  0  0  0
    2.0874    0.4023   -0.2484 P   0  0  0  0  0  0  0  0  0  0  0  0
    2.0452    1.3996   -1.9418 S   0  0  0  0  0  0  0  0  0  0  0  0
    1.3425    1.0299    1.0001 O   0  0  0  0  0  0  0  0  0  0  0  0
    1.5008    2.4272    1.3297 C   0  0  0  0  0  0  0  0  0  0  0  0
    0.6343    2.7160    2.5364 C   0  0  0  0  0  0  0  0  0  0  0  0
    1.3083   -1.5415   -0.2347 S   0  0  0  0  0  0  0  0  0  0  0  0
    0.1152   -1.4208   -1.6144 C   0  0  0  0  0  0  0  0  0  0  0  0
   -1.5797   -1.7566   -1.1024 S   0  0  0  0  0  0  0  0  0  0  0  0
   -1.8703   -0.0543    0.1451 P   0  0  0  0  0  0  0  0  0  0  0  0
   -1.3392    1.6326   -0.7013 S   0  0  0  0  0  0  0  0  0  0  0  0
   -1.1596   -0.2786    1.5288 O   0  0  0  0  0  0  0  0  0  0  0  0
   -1.6036   -1.1576    2.5949 C   0  0  0  0  0  0  0  0  0  0  0  0
   -1.5879   -2.6185    2.1979 C   0  0  0  0  0  0  0  0  0  0  0  0
   -3.4063   -0.1664    0.5273 O   0  0  0  0  0  0  0  0  0  0  0  0
   -4.4369    0.0599   -0.4568 C   0  0  0  0  0  0  0  0  0  0  0  0
   -5.7513    0.2258    0.2781 C   0  0  0  0  0  0  0  0  0  0  0  0
    4.5360   -2.1174   -0.3817 H   0  0  0  0  0  0  0  0  0  0  0  0
    3.8853   -1.3923   -1.8603 H   0  0  0  0  0  0  0  0  0  0  0  0
    5.6359   -1.5116   -1.6351 H   0  0  0  0  0  0  0  0  0  0  0  0
    4.7459    0.8115   -1.2354 H   0  0  0  0  0  0  0  0  0  0  0  0
    5.5492    0.1312    0.2132 H   0  0  0  0  0  0  0  0  0  0  0  0
    2.5581    2.6168    1.5340 H   0  0  0  0  0  0  0  0  0  0  0  0
    1.1889    3.0196    0.4623 H   0  0  0  0  0  0  0  0  0  0  0  0
    0.9432    2.0960    3.3727 H   0  0  0  0  0  0  0  0  0  0  0  0
    0.7306    3.7637    2.8018 H   0  0  0  0  0  0  0  0  0  0  0  0
   -0.4043    2.4990    2.2988 H   0  0  0  0  0  0  0  0  0  0  0  0
    0.3650   -2.1859   -2.3448 H   0  0  0  0  0  0  0  0  0  0  0  0
    0.1865   -0.4201   -2.0500 H   0  0  0  0  0  0  0  0  0  0  0  0
   -0.8856   -0.9526    3.3906 H   0  0  0  0  0  0  0  0  0  0  0  0
   -2.6023   -0.8416    2.9001 H   0  0  0  0  0  0  0  0  0  0  0  0
   -0.6146   -2.8916    1.7955 H   0  0  0  0  0  0  0  0  0  0  0  0
   -1.7908   -3.2214    3.0777 H   0  0  0  0  0  0  0  0  0  0  0  0
   -2.3491   -2.8207    1.4478 H   0  0  0  0  0  0  0  0  0  0  0  0
   -4.1787    0.9560   -1.0306 H   0  0  0  0  0  0  0  0  0  0  0  0
   -4.4590   -0.8011   -1.1299 H   0  0  0  0  0  0  0  0  0  0  0  0
   -5.6993    1.0781    0.9498 H   0  0  0  0  0  0  0  0  0  0  0  0
   -6.5434    0.3886   -0.4451 H   0  0  0  0  0  0  0  0  0  0  0  0
   -5.9697   -0.6675    0.8557 H   0  0  0  0  0  0  0  0  0  0  0  0
  1  2  1  0  0  0  0
  2  3  1  0  0  0  0
  3  4  2  0  0  0  0
  4  5  2  0  0  0  0
  4  6  2  0  0  0  0
  6  7  1  0  0  0  0
  7  8  1  0  0  0  0
  4  9  1  0  0  0  0
  9 10  1  0  0  0  0
 10 11  1  0  0  0  0
 11 12  1  0  0  0  0
 12 13  2  0  0  0  0
 12 14  2  0  0  0  0
 14 15  1  0  0  0  0
 15 16  1  0  0  0  0
 12 17  2  0  0  0  0
 17 18  1  0  0  0  0
 18 19  1  0  0  0  0
  1 20  1  0  0  0  0
  1 21  1  0  0  0  0
  1 22  1  0  0  0  0
  2 23  1  0  0  0  0
  2 24  1  0  0  0  0
  7 25  1  0  0  0  0
  7 26  1  0  0  0  0
  8 27  1  0  0  0  0
  8 28  1  0  0  0  0
  8 29  1  0  0  0  0
 10 30  1  0  0  0  0
 10 31  1  0  0  0  0
 15 32  1  0  0  0  0
 15 33  1  0  0  0  0
 16 34  1  0  0  0  0
 16 35  1  0  0  0  0
 16 36  1  0  0  0  0
 18 37  1  0  0  0  0
 18 38  1  0  0  0  0
 19 39  1  0  0  0  0
 19 40  1  0  0  0  0
 19 41  1  0  0  0  0
M  END
