 xtb: 6.7.1 (edcfbbe)
          04032520133D

 22 24  0     0  0            999 V2000
    2.7750   -1.3916   -0.0001 C   0  0  0  0  0  0  0  0  0  0  0  0
    1.5785   -0.6981   -0.0001 C   0  0  0  0  0  0  0  0  0  0  0  0
    1.5785    0.6981   -0.0001 C   0  0  0  0  0  0  0  0  0  0  0  0
    2.7750    1.3916    0.0000 C   0  0  0  0  0  0  0  0  0  0  0  0
    3.9768    0.6951    0.0001 C   0  0  0  0  0  0  0  0  0  0  0  0
    3.9768   -0.6950   -0.0000 C   0  0  0  0  0  0  0  0  0  0  0  0
    5.4632   -1.5688   -0.0000 Cl  0  0  0  0  0  0  0  0  0  0  0  0
    5.4632    1.5688    0.0003 Cl  0  0  0  0  0  0  0  0  0  0  0  0
    0.4100    1.4243   -0.0001 O   0  0  0  0  0  0  0  0  0  0  0  0
   -0.7432    0.6991   -0.0001 C   0  0  0  0  0  0  0  0  0  0  0  0
   -0.7432   -0.6991   -0.0001 C   0  0  0  0  0  0  0  0  0  0  0  0
   -1.9511   -1.3893   -0.0000 C   0  0  0  0  0  0  0  0  0  0  0  0
   -3.1620   -0.6952    0.0001 C   0  0  0  0  0  0  0  0  0  0  0  0
   -3.1620    0.6952    0.0000 C   0  0  0  0  0  0  0  0  0  0  0  0
   -1.9511    1.3893   -0.0001 C   0  0  0  0  0  0  0  0  0  0  0  0
   -1.9225    3.1043   -0.0001 Cl  0  0  0  0  0  0  0  0  0  0  0  0
   -4.6423    1.5600    0.0001 Cl  0  0  0  0  0  0  0  0  0  0  0  0
   -4.6423   -1.5600    0.0002 Cl  0  0  0  0  0  0  0  0  0  0  0  0
   -1.9225   -3.1043    0.0000 Cl  0  0  0  0  0  0  0  0  0  0  0  0
    0.4100   -1.4243   -0.0002 O   0  0  0  0  0  0  0  0  0  0  0  0
    2.7593   -2.4683   -0.0002 H   0  0  0  0  0  0  0  0  0  0  0  0
    2.7593    2.4683    0.0001 H   0  0  0  0  0  0  0  0  0  0  0  0
  1  2  4  0  0  0  0
  2  3  4  0  0  0  0
  3  4  4  0  0  0  0
  4  5  4  0  0  0  0
  1  6  4  0  0  0  0
  5  6  4  0  0  0  0
  6  7  1  0  0  0  0
  5  8  1  0  0  0  0
  3  9  1  0  0  0  0
  9 10  1  0  0  0  0
 10 11  4  0  0  0  0
 11 12  4  0  0  0  0
 12 13  4  0  0  0  0
 13 14  4  0  0  0  0
 10 15  4  0  0  0  0
 14 15  4  0  0  0  0
 15 16  1  0  0  0  0
 14 17  1  0  0  0  0
 13 18  1  0  0  0  0
 12 19  1  0  0  0  0
  2 20  1  0  0  0  0
 11 20  1  0  0  0  0
  1 21  1  0  0  0  0
  4 22  1  0  0  0  0
M  END
