 xtb: 6.7.1 (edcfbbe)
          04092505213D

 41 40  0     0  0            999 V2000
    1.5368   -2.5054    1.8587 C   0  0  0  0  0  0  0  0  0  0  0  0
    2.0666   -1.1106    2.1233 C   0  0  0  0  0  0  0  0  0  0  0  0
    3.0650   -0.7064    1.1718 O   0  0  0  0  0  0  0  0  0  0  0  0
    2.7993   -0.4015   -0.3669 P   0  0  0  0  0  0  0  0  0  0  0  0
    2.5535   -1.9489   -1.5432 S   0  0  0  0  0  0  0  0  0  0  0  0
    4.1104    0.3613   -0.7813 O   0  0  0  0  0  0  0  0  0  0  0  0
    4.4646    1.7302   -0.4640 C   0  0  0  0  0  0  0  0  0  0  0  0
    4.3522    2.0546    1.0097 C   0  0  0  0  0  0  0  0  0  0  0  0
    1.2282    1.0530   -0.3966 S   0  0  0  0  0  0  0  0  0  0  0  0
   -0.0414    0.0760   -1.2346 C   0  0  0  0  0  0  0  0  0  0  0  0
   -1.1268   -0.8106   -0.0891 S   0  0  0  0  0  0  0  0  0  0  0  0
   -2.8188    0.5020   -0.1279 P   0  0  0  0  0  0  0  0  0  0  0  0
   -2.6173    2.1788   -1.1120 S   0  0  0  0  0  0  0  0  0  0  0  0
   -3.2626    0.6389    1.3959 O   0  0  0  0  0  0  0  0  0  0  0  0
   -2.7357    1.6474    2.2759 C   0  0  0  0  0  0  0  0  0  0  0  0
   -1.2667    1.4345    2.5802 C   0  0  0  0  0  0  0  0  0  0  0  0
   -3.9880   -0.3792   -0.7112 O   0  0  0  0  0  0  0  0  0  0  0  0
   -4.3177   -1.6978   -0.1995 C   0  0  0  0  0  0  0  0  0  0  0  0
   -4.0250   -2.7444   -1.2557 C   0  0  0  0  0  0  0  0  0  0  0  0
    2.3589   -3.2126    1.7848 H   0  0  0  0  0  0  0  0  0  0  0  0
    0.8802   -2.8001    2.6707 H   0  0  0  0  0  0  0  0  0  0  0  0
    0.9746   -2.5297    0.9264 H   0  0  0  0  0  0  0  0  0  0  0  0
    2.5891   -1.0597    3.0802 H   0  0  0  0  0  0  0  0  0  0  0  0
    1.2536   -0.3785    2.1068 H   0  0  0  0  0  0  0  0  0  0  0  0
    5.4949    1.8052   -0.8155 H   0  0  0  0  0  0  0  0  0  0  0  0
    3.8232    2.3877   -1.0566 H   0  0  0  0  0  0  0  0  0  0  0  0
    4.7465    3.0518    1.1802 H   0  0  0  0  0  0  0  0  0  0  0  0
    3.3103    2.0305    1.3233 H   0  0  0  0  0  0  0  0  0  0  0  0
    4.9194    1.3378    1.5976 H   0  0  0  0  0  0  0  0  0  0  0  0
    0.4533   -0.6690   -1.8614 H   0  0  0  0  0  0  0  0  0  0  0  0
   -0.6413    0.7712   -1.8230 H   0  0  0  0  0  0  0  0  0  0  0  0
   -2.8967    2.6266    1.8148 H   0  0  0  0  0  0  0  0  0  0  0  0
   -3.3502    1.5537    3.1726 H   0  0  0  0  0  0  0  0  0  0  0  0
   -0.6707    1.6153    1.6858 H   0  0  0  0  0  0  0  0  0  0  0  0
   -0.9566    2.1330    3.3507 H   0  0  0  0  0  0  0  0  0  0  0  0
   -1.0998    0.4173    2.9265 H   0  0  0  0  0  0  0  0  0  0  0  0
   -3.7473   -1.8823    0.7133 H   0  0  0  0  0  0  0  0  0  0  0  0
   -5.3823   -1.6549    0.0347 H   0  0  0  0  0  0  0  0  0  0  0  0
   -4.3607   -3.7129   -0.8991 H   0  0  0  0  0  0  0  0  0  0  0  0
   -4.5480   -2.4998   -2.1761 H   0  0  0  0  0  0  0  0  0  0  0  0
   -2.9581   -2.7928   -1.4602 H   0  0  0  0  0  0  0  0  0  0  0  0
  1  2  1  0  0  0  0
  2  3  1  0  0  0  0
  3  4  2  0  0  0  0
  4  5  2  0  0  0  0
  4  6  2  0  0  0  0
  6  7  1  0  0  0  0
  7  8  1  0  0  0  0
  4  9  1  0  0  0  0
  9 10  1  0  0  0  0
 10 11  1  0  0  0  0
 11 12  1  0  0  0  0
 12 13  2  0  0  0  0
 12 14  2  0  0  0  0
 14 15  1  0  0  0  0
 15 16  1  0  0  0  0
 12 17  2  0  0  0  0
 17 18  1  0  0  0  0
 18 19  1  0  0  0  0
  1 20  1  0  0  0  0
  1 21  1  0  0  0  0
  1 22  1  0  0  0  0
  2 23  1  0  0  0  0
  2 24  1  0  0  0  0
  7 25  1  0  0  0  0
  7 26  1  0  0  0  0
  8 27  1  0  0  0  0
  8 28  1  0  0  0  0
  8 29  1  0  0  0  0
 10 30  1  0  0  0  0
 10 31  1  0  0  0  0
 15 32  1  0  0  0  0
 15 33  1  0  0  0  0
 16 34  1  0  0  0  0
 16 35  1  0  0  0  0
 16 36  1  0  0  0  0
 18 37  1  0  0  0  0
 18 38  1  0  0  0  0
 19 39  1  0  0  0  0
 19 40  1  0  0  0  0
 19 41  1  0  0  0  0
M  END
