 xtb: 6.7.1 (edcfbbe)
          04092505213D

 41 40  0     0  0            999 V2000
    4.7813    0.0130   -1.3894 C   0  0  0  0  0  0  0  0  0  0  0  0
    4.5918    0.0412    0.1138 C   0  0  0  0  0  0  0  0  0  0  0  0
    3.3108   -0.4714    0.5018 O   0  0  0  0  0  0  0  0  0  0  0  0
    1.9493    0.3004    0.1556 P   0  0  0  0  0  0  0  0  0  0  0  0
    2.1332    2.2389    0.4038 S   0  0  0  0  0  0  0  0  0  0  0  0
    0.9366   -0.4557    1.1093 O   0  0  0  0  0  0  0  0  0  0  0  0
    0.9191   -0.1765    2.5259 C   0  0  0  0  0  0  0  0  0  0  0  0
    1.7121   -1.2164    3.2904 C   0  0  0  0  0  0  0  0  0  0  0  0
    1.3768   -0.4255   -1.7480 S   0  0  0  0  0  0  0  0  0  0  0  0
    0.1641   -1.7352   -1.3835 C   0  0  0  0  0  0  0  0  0  0  0  0
   -1.5191   -1.3301   -1.9430 S   0  0  0  0  0  0  0  0  0  0  0  0
   -2.1702   -0.0163   -0.4312 P   0  0  0  0  0  0  0  0  0  0  0  0
   -3.9970    0.6508   -0.6472 S   0  0  0  0  0  0  0  0  0  0  0  0
   -1.0093    1.0775   -0.4443 O   0  0  0  0  0  0  0  0  0  0  0  0
   -1.3119    2.4595   -0.1599 C   0  0  0  0  0  0  0  0  0  0  0  0
   -1.5418    2.6873    1.3180 C   0  0  0  0  0  0  0  0  0  0  0  0
   -1.8907   -0.7524    0.9587 O   0  0  0  0  0  0  0  0  0  0  0  0
   -2.8883   -1.5873    1.5737 C   0  0  0  0  0  0  0  0  0  0  0  0
   -3.0444   -2.9140    0.8574 C   0  0  0  0  0  0  0  0  0  0  0  0
    5.7848    0.3463   -1.6334 H   0  0  0  0  0  0  0  0  0  0  0  0
    4.6291   -0.9920   -1.7736 H   0  0  0  0  0  0  0  0  0  0  0  0
    4.0613    0.6802   -1.8650 H   0  0  0  0  0  0  0  0  0  0  0  0
    4.6837    1.0648    0.4925 H   0  0  0  0  0  0  0  0  0  0  0  0
    5.3058   -0.6081    0.6222 H   0  0  0  0  0  0  0  0  0  0  0  0
    1.3191    0.8298    2.6932 H   0  0  0  0  0  0  0  0  0  0  0  0
   -0.1381   -0.1961    2.7983 H   0  0  0  0  0  0  0  0  0  0  0  0
    2.7564   -1.1895    2.9901 H   0  0  0  0  0  0  0  0  0  0  0  0
    1.6401   -1.0040    4.3526 H   0  0  0  0  0  0  0  0  0  0  0  0
    1.3160   -2.2090    3.0952 H   0  0  0  0  0  0  0  0  0  0  0  0
    0.1618   -1.9403   -0.3185 H   0  0  0  0  0  0  0  0  0  0  0  0
    0.4551   -2.6039   -1.9680 H   0  0  0  0  0  0  0  0  0  0  0  0
   -0.4388    3.0068   -0.5191 H   0  0  0  0  0  0  0  0  0  0  0  0
   -2.1959    2.7457   -0.7380 H   0  0  0  0  0  0  0  0  0  0  0  0
   -1.7565    3.7378    1.4862 H   0  0  0  0  0  0  0  0  0  0  0  0
   -2.3876    2.0903    1.6567 H   0  0  0  0  0  0  0  0  0  0  0  0
   -0.6549    2.4100    1.8821 H   0  0  0  0  0  0  0  0  0  0  0  0
   -2.5315   -1.7218    2.5961 H   0  0  0  0  0  0  0  0  0  0  0  0
   -3.8377   -1.0420    1.5804 H   0  0  0  0  0  0  0  0  0  0  0  0
   -3.7450   -3.5341    1.4075 H   0  0  0  0  0  0  0  0  0  0  0  0
   -3.4312   -2.7527   -0.1480 H   0  0  0  0  0  0  0  0  0  0  0  0
   -2.0890   -3.4278    0.7893 H   0  0  0  0  0  0  0  0  0  0  0  0
  1  2  1  0  0  0  0
  2  3  1  0  0  0  0
  3  4  1  0  0  0  0
  4  5  2  0  0  0  0
  4  6  1  0  0  0  0
  6  7  1  0  0  0  0
  7  8  1  0  0  0  0
  4  9  1  0  0  0  0
  9 10  1  0  0  0  0
 10 11  1  0  0  0  0
 11 12  1  0  0  0  0
 12 13  2  0  0  0  0
 12 14  1  0  0  0  0
 14 15  1  0  0  0  0
 15 16  1  0  0  0  0
 12 17  1  0  0  0  0
 17 18  1  0  0  0  0
 18 19  1  0  0  0  0
  1 20  1  0  0  0  0
  1 21  1  0  0  0  0
  1 22  1  0  0  0  0
  2 23  1  0  0  0  0
  2 24  1  0  0  0  0
  7 25  1  0  0  0  0
  7 26  1  0  0  0  0
  8 27  1  0  0  0  0
  8 28  1  0  0  0  0
  8 29  1  0  0  0  0
 10 30  1  0  0  0  0
 10 31  1  0  0  0  0
 15 32  1  0  0  0  0
 15 33  1  0  0  0  0
 16 34  1  0  0  0  0
 16 35  1  0  0  0  0
 16 36  1  0  0  0  0
 18 37  1  0  0  0  0
 18 38  1  0  0  0  0
 19 39  1  0  0  0  0
 19 40  1  0  0  0  0
 19 41  1  0  0  0  0
M  END
