 xtb: 6.7.1 (edcfbbe)
          04092507313D

 38 37  0     0  0            999 V2000
    3.1319   -3.9773    0.2660 C   0  0  0  0  0  0  0  0  0  0  0  0
    2.7168   -2.5664    0.6315 C   0  0  0  0  0  0  0  0  0  0  0  0
    2.2585   -1.9127   -0.5677 O   0  0  0  0  0  0  0  0  0  0  0  0
    2.0710   -0.6155   -0.5399 C   0  0  0  0  0  0  0  0  0  0  0  0
    2.2452    0.0921    0.4334 O   0  0  0  0  0  0  0  0  0  0  0  0
    1.6482   -0.0662   -1.8895 C   0  0  0  0  0  0  0  0  0  0  0  0
    0.4381    0.8627   -1.7527 C   0  0  0  0  0  0  0  0  0  0  0  0
    0.3815    1.5272   -2.6176 H   0  0  0  0  0  0  0  0  0  0  0  0
    0.5186    1.6989   -0.4898 C   0  0  0  0  0  0  0  0  0  0  0  0
   -0.2667    1.5569    0.4325 O   0  0  0  0  0  0  0  0  0  0  0  0
    1.4587    2.5924   -0.5508 O   0  0  0  0  0  0  0  0  0  0  0  0
    1.6943    3.4270    0.6046 C   0  0  0  0  0  0  0  0  0  0  0  0
    0.7522    4.6189    0.6193 C   0  0  0  0  0  0  0  0  0  0  0  0
   -1.1482   -0.0410   -1.7508 S   0  0  0  0  0  0  0  0  0  0  0  0
   -1.6966   -0.3946    0.2675 P   0  0  0  0  0  0  0  0  0  0  0  0
   -0.5050   -1.1782    1.6250 S   0  0  0  0  0  0  0  0  0  0  0  0
   -2.7488    0.7077    0.7242 O   0  0  0  0  0  0  0  0  0  0  0  0
   -2.6276    1.5242    1.8887 C   0  0  0  0  0  0  0  0  0  0  0  0
   -2.8469   -1.4623   -0.1057 O   0  0  0  0  0  0  0  0  0  0  0  0
   -2.5345   -2.7932   -0.5181 C   0  0  0  0  0  0  0  0  0  0  0  0
    3.4693   -4.4911    1.1597 H   0  0  0  0  0  0  0  0  0  0  0  0
    2.2879   -4.5131   -0.1573 H   0  0  0  0  0  0  0  0  0  0  0  0
    3.9371   -3.9535   -0.4622 H   0  0  0  0  0  0  0  0  0  0  0  0
    3.5471   -1.9847    1.0438 H   0  0  0  0  0  0  0  0  0  0  0  0
    1.8970   -2.5534    1.3578 H   0  0  0  0  0  0  0  0  0  0  0  0
    1.4222   -0.8856   -2.5698 H   0  0  0  0  0  0  0  0  0  0  0  0
    2.4903    0.5124   -2.2756 H   0  0  0  0  0  0  0  0  0  0  0  0
    1.5772    2.8107    1.5000 H   0  0  0  0  0  0  0  0  0  0  0  0
    2.7328    3.7386    0.4960 H   0  0  0  0  0  0  0  0  0  0  0  0
    0.9936    5.2521    1.4664 H   0  0  0  0  0  0  0  0  0  0  0  0
    0.8575    5.1908   -0.2982 H   0  0  0  0  0  0  0  0  0  0  0  0
   -0.2787    4.2850    0.7140 H   0  0  0  0  0  0  0  0  0  0  0  0
   -3.5839    1.4712    2.4054 H   0  0  0  0  0  0  0  0  0  0  0  0
   -2.4108    2.5458    1.5812 H   0  0  0  0  0  0  0  0  0  0  0  0
   -1.8279    1.1568    2.5343 H   0  0  0  0  0  0  0  0  0  0  0  0
   -1.7737   -3.2187    0.1404 H   0  0  0  0  0  0  0  0  0  0  0  0
   -2.1798   -2.7958   -1.5491 H   0  0  0  0  0  0  0  0  0  0  0  0
   -3.4630   -3.3522   -0.4326 H   0  0  0  0  0  0  0  0  0  0  0  0
  1  2  1  0  0  0  0
  2  3  1  0  0  0  0
  3  4  4  0  0  0  0
  4  5  2  0  0  0  0
  4  6  1  0  0  0  0
  6  7  1  0  0  0  0
  7  8  1  0  0  0  0
  7  9  1  0  0  0  0
  9 10  2  0  0  0  0
  9 11  4  0  0  0  0
 11 12  1  0  0  0  0
 12 13  1  0  0  0  0
  7 14  1  0  0  0  0
 14 15  1  0  0  0  0
 15 16  2  0  0  0  0
 15 17  1  0  0  0  0
 17 18  1  0  0  0  0
 15 19  1  0  0  0  0
 19 20  1  0  0  0  0
  1 21  1  0  0  0  0
  1 22  1  0  0  0  0
  1 23  1  0  0  0  0
  2 24  1  0  0  0  0
  2 25  1  0  0  0  0
  6 26  1  0  0  0  0
  6 27  1  0  0  0  0
 12 28  1  0  0  0  0
 12 29  1  0  0  0  0
 13 30  1  0  0  0  0
 13 31  1  0  0  0  0
 13 32  1  0  0  0  0
 18 33  1  0  0  0  0
 18 34  1  0  0  0  0
 18 35  1  0  0  0  0
 20 36  1  0  0  0  0
 20 37  1  0  0  0  0
 20 38  1  0  0  0  0
M  END
