 xtb: 6.7.1 (edcfbbe)
          04092507313D

 38 37  0     0  0            999 V2000
    4.9897   -2.7135   -1.1826 C   0  0  0  0  0  0  0  0  0  0  0  0
    3.6926   -3.3085   -0.6592 C   0  0  0  0  0  0  0  0  0  0  0  0
    2.5539   -2.7081   -1.3118 O   0  0  0  0  0  0  0  0  0  0  0  0
    2.0597   -1.5958   -0.8215 C   0  0  0  0  0  0  0  0  0  0  0  0
    2.4751   -1.0305    0.1711 O   0  0  0  0  0  0  0  0  0  0  0  0
    0.8618   -1.1154   -1.6097 C   0  0  0  0  0  0  0  0  0  0  0  0
    0.6320    0.3821   -1.4034 C   0  0  0  0  0  0  0  0  0  0  0  0
    1.2146    0.9853   -2.0996 H   0  0  0  0  0  0  0  0  0  0  0  0
    0.9258    0.8273    0.0149 C   0  0  0  0  0  0  0  0  0  0  0  0
    0.1932    0.4918    0.9338 O   0  0  0  0  0  0  0  0  0  0  0  0
    1.9111    1.6696    0.1001 O   0  0  0  0  0  0  0  0  0  0  0  0
    2.2447    2.2071    1.3997 C   0  0  0  0  0  0  0  0  0  0  0  0
    1.3508    3.3857    1.7488 C   0  0  0  0  0  0  0  0  0  0  0  0
   -1.1231    0.8127   -1.6675 S   0  0  0  0  0  0  0  0  0  0  0  0
   -2.0608    0.3622    0.1896 P   0  0  0  0  0  0  0  0  0  0  0  0
   -2.3096    1.6187    1.6859 S   0  0  0  0  0  0  0  0  0  0  0  0
   -3.4321    0.2460   -0.6515 O   0  0  0  0  0  0  0  0  0  0  0  0
   -4.7101    0.1298   -0.0256 C   0  0  0  0  0  0  0  0  0  0  0  0
   -1.8833   -1.1866    0.5841 O   0  0  0  0  0  0  0  0  0  0  0  0
   -1.2997   -1.6528    1.7980 C   0  0  0  0  0  0  0  0  0  0  0  0
    5.8288   -3.2288   -0.7272 H   0  0  0  0  0  0  0  0  0  0  0  0
    5.0439   -2.8248   -2.2619 H   0  0  0  0  0  0  0  0  0  0  0  0
    5.0461   -1.6569   -0.9306 H   0  0  0  0  0  0  0  0  0  0  0  0
    3.6008   -3.1524    0.4193 H   0  0  0  0  0  0  0  0  0  0  0  0
    3.6141   -4.3685   -0.8998 H   0  0  0  0  0  0  0  0  0  0  0  0
   -0.0018   -1.6783   -1.2413 H   0  0  0  0  0  0  0  0  0  0  0  0
    0.9827   -1.3500   -2.6658 H   0  0  0  0  0  0  0  0  0  0  0  0
    2.1481    1.4067    2.1374 H   0  0  0  0  0  0  0  0  0  0  0  0
    3.2865    2.5104    1.2992 H   0  0  0  0  0  0  0  0  0  0  0  0
    1.6746    3.8113    2.6926 H   0  0  0  0  0  0  0  0  0  0  0  0
    1.4094    4.1445    0.9734 H   0  0  0  0  0  0  0  0  0  0  0  0
    0.3151    3.0651    1.8503 H   0  0  0  0  0  0  0  0  0  0  0  0
   -5.4378    0.4191   -0.7799 H   0  0  0  0  0  0  0  0  0  0  0  0
   -4.7704    0.7981    0.8368 H   0  0  0  0  0  0  0  0  0  0  0  0
   -4.8752   -0.8993    0.2923 H   0  0  0  0  0  0  0  0  0  0  0  0
   -1.4377   -0.9142    2.5895 H   0  0  0  0  0  0  0  0  0  0  0  0
   -0.2335   -1.8267    1.6565 H   0  0  0  0  0  0  0  0  0  0  0  0
   -1.8157   -2.5789    2.0411 H   0  0  0  0  0  0  0  0  0  0  0  0
  1  2  1  0  0  0  0
  2  3  1  0  0  0  0
  3  4  4  0  0  0  0
  4  5  2  0  0  0  0
  4  6  1  0  0  0  0
  6  7  1  0  0  0  0
  7  8  1  0  0  0  0
  7  9  1  0  0  0  0
  9 10  2  0  0  0  0
  9 11  4  0  0  0  0
 11 12  1  0  0  0  0
 12 13  1  0  0  0  0
  7 14  1  0  0  0  0
 14 15  1  0  0  0  0
 15 16  2  0  0  0  0
 15 17  1  0  0  0  0
 17 18  1  0  0  0  0
 15 19  1  0  0  0  0
 19 20  1  0  0  0  0
  1 21  1  0  0  0  0
  1 22  1  0  0  0  0
  1 23  1  0  0  0  0
  2 24  1  0  0  0  0
  2 25  1  0  0  0  0
  6 26  1  0  0  0  0
  6 27  1  0  0  0  0
 12 28  1  0  0  0  0
 12 29  1  0  0  0  0
 13 30  1  0  0  0  0
 13 31  1  0  0  0  0
 13 32  1  0  0  0  0
 18 33  1  0  0  0  0
 18 34  1  0  0  0  0
 18 35  1  0  0  0  0
 20 36  1  0  0  0  0
 20 37  1  0  0  0  0
 20 38  1  0  0  0  0
M  END
