 xtb: 6.7.1 (edcfbbe)
          04092505203D

 41 40  0     0  0            999 V2000
    0.5139   -2.2802    1.9181 C   0  0  0  0  0  0  0  0  0  0  0  0
    1.8264   -1.6302    2.3075 C   0  0  0  0  0  0  0  0  0  0  0  0
    2.1306   -0.4881    1.4870 O   0  0  0  0  0  0  0  0  0  0  0  0
    2.5353   -0.6411   -0.0350 P   0  0  0  0  0  0  0  0  0  0  0  0
    3.3097   -2.3562   -0.5727 S   0  0  0  0  0  0  0  0  0  0  0  0
    3.4673    0.6465   -0.0935 O   0  0  0  0  0  0  0  0  0  0  0  0
    4.1162    1.0404   -1.3192 C   0  0  0  0  0  0  0  0  0  0  0  0
    5.5128    0.4562   -1.4056 C   0  0  0  0  0  0  0  0  0  0  0  0
    0.8300   -0.0447   -1.1665 S   0  0  0  0  0  0  0  0  0  0  0  0
    0.4396    1.4757   -0.2459 C   0  0  0  0  0  0  0  0  0  0  0  0
   -0.6693    1.2115    1.1632 S   0  0  0  0  0  0  0  0  0  0  0  0
   -2.3272    0.5558    0.0362 P   0  0  0  0  0  0  0  0  0  0  0  0
   -2.6270    1.4163   -1.7049 S   0  0  0  0  0  0  0  0  0  0  0  0
   -3.5502    0.6296    1.0481 O   0  0  0  0  0  0  0  0  0  0  0  0
   -4.3810    1.7967    1.1727 C   0  0  0  0  0  0  0  0  0  0  0  0
   -3.6333    2.9682    1.7760 C   0  0  0  0  0  0  0  0  0  0  0  0
   -2.0280   -1.0004    0.0136 O   0  0  0  0  0  0  0  0  0  0  0  0
   -2.5826   -1.8780   -0.9843 C   0  0  0  0  0  0  0  0  0  0  0  0
   -4.0809   -2.0300   -0.8271 C   0  0  0  0  0  0  0  0  0  0  0  0
    0.5768   -2.6491    0.8939 H   0  0  0  0  0  0  0  0  0  0  0  0
    0.3158   -3.1162    2.5811 H   0  0  0  0  0  0  0  0  0  0  0  0
   -0.3052   -1.5682    1.9846 H   0  0  0  0  0  0  0  0  0  0  0  0
    2.6465   -2.3498    2.2197 H   0  0  0  0  0  0  0  0  0  0  0  0
    1.7908   -1.2234    3.3187 H   0  0  0  0  0  0  0  0  0  0  0  0
    3.5057    0.7234   -2.1720 H   0  0  0  0  0  0  0  0  0  0  0  0
    4.1476    2.1313   -1.2794 H   0  0  0  0  0  0  0  0  0  0  0  0
    6.0931    0.7501   -0.5355 H   0  0  0  0  0  0  0  0  0  0  0  0
    5.4660   -0.6299   -1.4439 H   0  0  0  0  0  0  0  0  0  0  0  0
    5.9989    0.8220   -2.3043 H   0  0  0  0  0  0  0  0  0  0  0  0
   -0.0436    2.1428   -0.9591 H   0  0  0  0  0  0  0  0  0  0  0  0
    1.3540    1.9075    0.1534 H   0  0  0  0  0  0  0  0  0  0  0  0
   -4.7637    2.0561    0.1804 H   0  0  0  0  0  0  0  0  0  0  0  0
   -5.2004    1.4677    1.8132 H   0  0  0  0  0  0  0  0  0  0  0  0
   -3.1625    2.6755    2.7111 H   0  0  0  0  0  0  0  0  0  0  0  0
   -2.8622    3.3117    1.0875 H   0  0  0  0  0  0  0  0  0  0  0  0
   -4.3279    3.7816    1.9598 H   0  0  0  0  0  0  0  0  0  0  0  0
   -2.3311   -1.4805   -1.9731 H   0  0  0  0  0  0  0  0  0  0  0  0
   -2.0591   -2.8218   -0.8254 H   0  0  0  0  0  0  0  0  0  0  0  0
   -4.4437   -2.7726   -1.5307 H   0  0  0  0  0  0  0  0  0  0  0  0
   -4.3217   -2.3405    0.1862 H   0  0  0  0  0  0  0  0  0  0  0  0
   -4.5722   -1.0792   -1.0312 H   0  0  0  0  0  0  0  0  0  0  0  0
  1  2  1  0  0  0  0
  2  3  1  0  0  0  0
  3  4  2  0  0  0  0
  4  5  2  0  0  0  0
  4  6  2  0  0  0  0
  6  7  1  0  0  0  0
  7  8  1  0  0  0  0
  4  9  1  0  0  0  0
  9 10  1  0  0  0  0
 10 11  1  0  0  0  0
 11 12  1  0  0  0  0
 12 13  2  0  0  0  0
 12 14  2  0  0  0  0
 14 15  1  0  0  0  0
 15 16  1  0  0  0  0
 12 17  2  0  0  0  0
 17 18  1  0  0  0  0
 18 19  1  0  0  0  0
  1 20  1  0  0  0  0
  1 21  1  0  0  0  0
  1 22  1  0  0  0  0
  2 23  1  0  0  0  0
  2 24  1  0  0  0  0
  7 25  1  0  0  0  0
  7 26  1  0  0  0  0
  8 27  1  0  0  0  0
  8 28  1  0  0  0  0
  8 29  1  0  0  0  0
 10 30  1  0  0  0  0
 10 31  1  0  0  0  0
 15 32  1  0  0  0  0
 15 33  1  0  0  0  0
 16 34  1  0  0  0  0
 16 35  1  0  0  0  0
 16 36  1  0  0  0  0
 18 37  1  0  0  0  0
 18 38  1  0  0  0  0
 19 39  1  0  0  0  0
 19 40  1  0  0  0  0
 19 41  1  0  0  0  0
M  END
