 xtb: 6.7.1 (edcfbbe)
          04092505213D

 41 40  0     0  0            999 V2000
    2.7417   -0.3931   -2.7431 C   0  0  0  0  0  0  0  0  0  0  0  0
    1.5786    0.3086   -2.0762 C   0  0  0  0  0  0  0  0  0  0  0  0
    1.0454   -0.4592   -0.9799 O   0  0  0  0  0  0  0  0  0  0  0  0
    1.8815   -0.6706    0.3607 P   0  0  0  0  0  0  0  0  0  0  0  0
    3.1229    0.7688    0.8585 S   0  0  0  0  0  0  0  0  0  0  0  0
    2.5738   -2.0696    0.0626 O   0  0  0  0  0  0  0  0  0  0  0  0
    3.6926   -2.5578    0.8234 C   0  0  0  0  0  0  0  0  0  0  0  0
    3.2986   -2.9372    2.2363 C   0  0  0  0  0  0  0  0  0  0  0  0
    0.3497   -1.2036    1.6990 S   0  0  0  0  0  0  0  0  0  0  0  0
   -0.2961    0.4468    2.1252 C   0  0  0  0  0  0  0  0  0  0  0  0
   -0.3183    1.6274    0.7496 S   0  0  0  0  0  0  0  0  0  0  0  0
   -1.9333    0.8673   -0.3980 P   0  0  0  0  0  0  0  0  0  0  0  0
   -1.9283    1.4271   -2.2737 S   0  0  0  0  0  0  0  0  0  0  0  0
   -3.2133    1.2755    0.4676 O   0  0  0  0  0  0  0  0  0  0  0  0
   -3.6283    2.6469    0.6034 C   0  0  0  0  0  0  0  0  0  0  0  0
   -4.6691    3.0058   -0.4394 C   0  0  0  0  0  0  0  0  0  0  0  0
   -1.9381   -0.6838   -0.1187 O   0  0  0  0  0  0  0  0  0  0  0  0
   -2.2850   -1.6775   -1.1099 C   0  0  0  0  0  0  0  0  0  0  0  0
   -1.3864   -2.8844   -0.9365 C   0  0  0  0  0  0  0  0  0  0  0  0
    3.0432    0.1720   -3.6193 H   0  0  0  0  0  0  0  0  0  0  0  0
    3.5823   -0.4528   -2.0525 H   0  0  0  0  0  0  0  0  0  0  0  0
    2.4547   -1.3984   -3.0401 H   0  0  0  0  0  0  0  0  0  0  0  0
    0.7321    0.4325   -2.7549 H   0  0  0  0  0  0  0  0  0  0  0  0
    1.8809    1.2905   -1.6953 H   0  0  0  0  0  0  0  0  0  0  0  0
    4.0385   -3.4218    0.2545 H   0  0  0  0  0  0  0  0  0  0  0  0
    4.4665   -1.7835    0.8352 H   0  0  0  0  0  0  0  0  0  0  0  0
    2.4535   -3.6207    2.2221 H   0  0  0  0  0  0  0  0  0  0  0  0
    4.1411   -3.4129    2.7279 H   0  0  0  0  0  0  0  0  0  0  0  0
    3.0195   -2.0461    2.7966 H   0  0  0  0  0  0  0  0  0  0  0  0
    0.3462    0.8998    2.8782 H   0  0  0  0  0  0  0  0  0  0  0  0
   -1.3049    0.2938    2.5020 H   0  0  0  0  0  0  0  0  0  0  0  0
   -4.0403    2.7138    1.6123 H   0  0  0  0  0  0  0  0  0  0  0  0
   -2.7508    3.2978    0.5237 H   0  0  0  0  0  0  0  0  0  0  0  0
   -4.2453    2.9295   -1.4384 H   0  0  0  0  0  0  0  0  0  0  0  0
   -5.5167    2.3301   -0.3669 H   0  0  0  0  0  0  0  0  0  0  0  0
   -5.0048    4.0244   -0.2744 H   0  0  0  0  0  0  0  0  0  0  0  0
   -3.3326   -1.9369   -0.9416 H   0  0  0  0  0  0  0  0  0  0  0  0
   -2.1794   -1.2339   -2.1060 H   0  0  0  0  0  0  0  0  0  0  0  0
   -1.4837   -3.2797    0.0708 H   0  0  0  0  0  0  0  0  0  0  0  0
   -1.6762   -3.6444   -1.6549 H   0  0  0  0  0  0  0  0  0  0  0  0
   -0.3474   -2.6115   -1.1041 H   0  0  0  0  0  0  0  0  0  0  0  0
  1  2  1  0  0  0  0
  2  3  1  0  0  0  0
  3  4  1  0  0  0  0
  4  5  2  0  0  0  0
  4  6  2  0  0  0  0
  6  7  1  0  0  0  0
  7  8  1  0  0  0  0
  4  9  1  0  0  0  0
  9 10  1  0  0  0  0
 10 11  1  0  0  0  0
 11 12  1  0  0  0  0
 12 13  2  0  0  0  0
 12 14  1  0  0  0  0
 14 15  1  0  0  0  0
 15 16  1  0  0  0  0
 12 17  2  0  0  0  0
 17 18  1  0  0  0  0
 18 19  1  0  0  0  0
  1 20  1  0  0  0  0
  1 21  1  0  0  0  0
  1 22  1  0  0  0  0
  2 23  1  0  0  0  0
  2 24  1  0  0  0  0
  7 25  1  0  0  0  0
  7 26  1  0  0  0  0
  8 27  1  0  0  0  0
  8 28  1  0  0  0  0
  8 29  1  0  0  0  0
 10 30  1  0  0  0  0
 10 31  1  0  0  0  0
 15 32  1  0  0  0  0
 15 33  1  0  0  0  0
 16 34  1  0  0  0  0
 16 35  1  0  0  0  0
 16 36  1  0  0  0  0
 18 37  1  0  0  0  0
 18 38  1  0  0  0  0
 19 39  1  0  0  0  0
 19 40  1  0  0  0  0
 19 41  1  0  0  0  0
M  END
