 xtb: 6.7.1 (edcfbbe)
          04092505213D

 41 40  0     0  0            999 V2000
    3.4953    2.0563    1.9383 C   0  0  0  0  0  0  0  0  0  0  0  0
    2.3821    2.1358    0.9149 C   0  0  0  0  0  0  0  0  0  0  0  0
    2.4818    1.0866   -0.0687 O   0  0  0  0  0  0  0  0  0  0  0  0
    2.2410   -0.4390    0.2721 P   0  0  0  0  0  0  0  0  0  0  0  0
    0.9223   -0.8209    1.6811 S   0  0  0  0  0  0  0  0  0  0  0  0
    3.7152   -0.9349    0.5971 O   0  0  0  0  0  0  0  0  0  0  0  0
    3.9908   -2.1883    1.2443 C   0  0  0  0  0  0  0  0  0  0  0  0
    3.6308   -3.3740    0.3723 C   0  0  0  0  0  0  0  0  0  0  0  0
    1.8828   -1.1620   -1.6784 S   0  0  0  0  0  0  0  0  0  0  0  0
    0.0813   -1.0141   -1.6916 C   0  0  0  0  0  0  0  0  0  0  0  0
   -0.4708    0.6864   -1.3454 S   0  0  0  0  0  0  0  0  0  0  0  0
   -2.3708    0.2136   -0.4734 P   0  0  0  0  0  0  0  0  0  0  0  0
   -2.5637   -1.5882    0.2561 S   0  0  0  0  0  0  0  0  0  0  0  0
   -3.4178    0.4574   -1.6230 O   0  0  0  0  0  0  0  0  0  0  0  0
   -3.5290    1.6932   -2.3719 C   0  0  0  0  0  0  0  0  0  0  0  0
   -4.5854    2.5977   -1.7715 C   0  0  0  0  0  0  0  0  0  0  0  0
   -2.6221    1.4507    0.4915 O   0  0  0  0  0  0  0  0  0  0  0  0
   -1.9619    1.5988    1.7638 C   0  0  0  0  0  0  0  0  0  0  0  0
   -2.8367    1.0714    2.8835 C   0  0  0  0  0  0  0  0  0  0  0  0
    3.4435    2.9184    2.5958 H   0  0  0  0  0  0  0  0  0  0  0  0
    3.3868    1.1497    2.5325 H   0  0  0  0  0  0  0  0  0  0  0  0
    4.4610    2.0360    1.4402 H   0  0  0  0  0  0  0  0  0  0  0  0
    2.4344    3.0504    0.3233 H   0  0  0  0  0  0  0  0  0  0  0  0
    1.4038    2.0631    1.4013 H   0  0  0  0  0  0  0  0  0  0  0  0
    5.0617   -2.1478    1.4474 H   0  0  0  0  0  0  0  0  0  0  0  0
    3.4335   -2.2218    2.1864 H   0  0  0  0  0  0  0  0  0  0  0  0
    4.0972   -3.2797   -0.6051 H   0  0  0  0  0  0  0  0  0  0  0  0
    3.9701   -4.2881    0.8492 H   0  0  0  0  0  0  0  0  0  0  0  0
    2.5504   -3.4267    0.2407 H   0  0  0  0  0  0  0  0  0  0  0  0
   -0.3553   -1.6703   -0.9326 H   0  0  0  0  0  0  0  0  0  0  0  0
   -0.2374   -1.3048   -2.6898 H   0  0  0  0  0  0  0  0  0  0  0  0
   -2.5507    2.1820   -2.3936 H   0  0  0  0  0  0  0  0  0  0  0  0
   -3.8054    1.3733   -3.3781 H   0  0  0  0  0  0  0  0  0  0  0  0
   -4.6973    3.4766   -2.3988 H   0  0  0  0  0  0  0  0  0  0  0  0
   -5.5350    2.0727   -1.7158 H   0  0  0  0  0  0  0  0  0  0  0  0
   -4.2958    2.9048   -0.7705 H   0  0  0  0  0  0  0  0  0  0  0  0
   -1.0059    1.0683    1.7458 H   0  0  0  0  0  0  0  0  0  0  0  0
   -1.7864    2.6717    1.8637 H   0  0  0  0  0  0  0  0  0  0  0  0
   -3.7999    1.5736    2.8776 H   0  0  0  0  0  0  0  0  0  0  0  0
   -2.9949    0.0020    2.7591 H   0  0  0  0  0  0  0  0  0  0  0  0
   -2.3421    1.2438    3.8339 H   0  0  0  0  0  0  0  0  0  0  0  0
  1  2  1  0  0  0  0
  2  3  1  0  0  0  0
  3  4  2  0  0  0  0
  4  5  2  0  0  0  0
  4  6  2  0  0  0  0
  6  7  1  0  0  0  0
  7  8  1  0  0  0  0
  4  9  1  0  0  0  0
  9 10  1  0  0  0  0
 10 11  1  0  0  0  0
 11 12  1  0  0  0  0
 12 13  2  0  0  0  0
 12 14  2  0  0  0  0
 14 15  1  0  0  0  0
 15 16  1  0  0  0  0
 12 17  2  0  0  0  0
 17 18  1  0  0  0  0
 18 19  1  0  0  0  0
  1 20  1  0  0  0  0
  1 21  1  0  0  0  0
  1 22  1  0  0  0  0
  2 23  1  0  0  0  0
  2 24  1  0  0  0  0
  7 25  1  0  0  0  0
  7 26  1  0  0  0  0
  8 27  1  0  0  0  0
  8 28  1  0  0  0  0
  8 29  1  0  0  0  0
 10 30  1  0  0  0  0
 10 31  1  0  0  0  0
 15 32  1  0  0  0  0
 15 33  1  0  0  0  0
 16 34  1  0  0  0  0
 16 35  1  0  0  0  0
 16 36  1  0  0  0  0
 18 37  1  0  0  0  0
 18 38  1  0  0  0  0
 19 39  1  0  0  0  0
 19 40  1  0  0  0  0
 19 41  1  0  0  0  0
M  END
