 xtb: 6.7.1 (edcfbbe)
          04092505213D

 41 40  0     0  0            999 V2000
    2.1767   -0.5457   -3.4244 C   0  0  0  0  0  0  0  0  0  0  0  0
    2.3923   -1.1787   -2.0670 C   0  0  0  0  0  0  0  0  0  0  0  0
    2.7434   -0.1256   -1.1328 O   0  0  0  0  0  0  0  0  0  0  0  0
    2.6628   -0.3251    0.4296 P   0  0  0  0  0  0  0  0  0  0  0  0
    3.4433    1.1842    1.3958 S   0  0  0  0  0  0  0  0  0  0  0  0
    3.3683   -1.7362    0.6223 O   0  0  0  0  0  0  0  0  0  0  0  0
    3.8668   -2.1896    1.8961 C   0  0  0  0  0  0  0  0  0  0  0  0
    2.7570   -2.4081    2.9034 C   0  0  0  0  0  0  0  0  0  0  0  0
    0.6134   -0.7039    0.8340 S   0  0  0  0  0  0  0  0  0  0  0  0
    0.1379    1.0577    0.8960 C   0  0  0  0  0  0  0  0  0  0  0  0
   -1.6099    1.2401    1.2530 S   0  0  0  0  0  0  0  0  0  0  0  0
   -2.3849    0.7705   -0.6929 P   0  0  0  0  0  0  0  0  0  0  0  0
   -1.0539    0.8417   -2.1274 S   0  0  0  0  0  0  0  0  0  0  0  0
   -3.5354    1.7991   -0.9941 O   0  0  0  0  0  0  0  0  0  0  0  0
   -4.8501    1.8058   -0.3844 C   0  0  0  0  0  0  0  0  0  0  0  0
   -4.7964    2.0653    1.1058 C   0  0  0  0  0  0  0  0  0  0  0  0
   -3.2141   -0.5725   -0.4932 O   0  0  0  0  0  0  0  0  0  0  0  0
   -2.6746   -1.8242   -0.0339 C   0  0  0  0  0  0  0  0  0  0  0  0
   -1.9707   -2.5750   -1.1461 C   0  0  0  0  0  0  0  0  0  0  0  0
    1.9736   -1.3250   -4.1515 H   0  0  0  0  0  0  0  0  0  0  0  0
    1.3306    0.1374   -3.3898 H   0  0  0  0  0  0  0  0  0  0  0  0
    3.0626    0.0075   -3.7222 H   0  0  0  0  0  0  0  0  0  0  0  0
    3.2141   -1.8968   -2.0799 H   0  0  0  0  0  0  0  0  0  0  0  0
    1.4844   -1.6730   -1.7089 H   0  0  0  0  0  0  0  0  0  0  0  0
    4.3812   -3.1204    1.6529 H   0  0  0  0  0  0  0  0  0  0  0  0
    4.5846   -1.4516    2.2663 H   0  0  0  0  0  0  0  0  0  0  0  0
    2.3102   -1.4539    3.1786 H   0  0  0  0  0  0  0  0  0  0  0  0
    1.9861   -3.0502    2.4849 H   0  0  0  0  0  0  0  0  0  0  0  0
    3.1695   -2.8712    3.7940 H   0  0  0  0  0  0  0  0  0  0  0  0
    0.3601    1.5124   -0.0724 H   0  0  0  0  0  0  0  0  0  0  0  0
    0.6912    1.5461    1.6969 H   0  0  0  0  0  0  0  0  0  0  0  0
   -5.3631    2.6098   -0.9143 H   0  0  0  0  0  0  0  0  0  0  0  0
   -5.3306    0.8504   -0.6011 H   0  0  0  0  0  0  0  0  0  0  0  0
   -4.2946    1.2462    1.6182 H   0  0  0  0  0  0  0  0  0  0  0  0
   -4.2564    2.9858    1.3122 H   0  0  0  0  0  0  0  0  0  0  0  0
   -5.8093    2.1522    1.4867 H   0  0  0  0  0  0  0  0  0  0  0  0
   -1.9911   -1.6366    0.8006 H   0  0  0  0  0  0  0  0  0  0  0  0
   -3.5493   -2.3715    0.3225 H   0  0  0  0  0  0  0  0  0  0  0  0
   -2.6492   -2.7402   -1.9786 H   0  0  0  0  0  0  0  0  0  0  0  0
   -1.1180   -2.0024   -1.5037 H   0  0  0  0  0  0  0  0  0  0  0  0
   -1.6220   -3.5299   -0.7672 H   0  0  0  0  0  0  0  0  0  0  0  0
  1  2  1  0  0  0  0
  2  3  1  0  0  0  0
  3  4  2  0  0  0  0
  4  5  2  0  0  0  0
  4  6  2  0  0  0  0
  6  7  1  0  0  0  0
  7  8  1  0  0  0  0
  4  9  1  0  0  0  0
  9 10  1  0  0  0  0
 10 11  1  0  0  0  0
 11 12  1  0  0  0  0
 12 13  2  0  0  0  0
 12 14  2  0  0  0  0
 14 15  1  0  0  0  0
 15 16  1  0  0  0  0
 12 17  2  0  0  0  0
 17 18  1  0  0  0  0
 18 19  1  0  0  0  0
  1 20  1  0  0  0  0
  1 21  1  0  0  0  0
  1 22  1  0  0  0  0
  2 23  1  0  0  0  0
  2 24  1  0  0  0  0
  7 25  1  0  0  0  0
  7 26  1  0  0  0  0
  8 27  1  0  0  0  0
  8 28  1  0  0  0  0
  8 29  1  0  0  0  0
 10 30  1  0  0  0  0
 10 31  1  0  0  0  0
 15 32  1  0  0  0  0
 15 33  1  0  0  0  0
 16 34  1  0  0  0  0
 16 35  1  0  0  0  0
 16 36  1  0  0  0  0
 18 37  1  0  0  0  0
 18 38  1  0  0  0  0
 19 39  1  0  0  0  0
 19 40  1  0  0  0  0
 19 41  1  0  0  0  0
M  END
