 xtb: 6.7.1 (edcfbbe)
          04092505213D

 41 40  0     0  0            999 V2000
    5.4068   -1.0770   -1.6893 C   0  0  0  0  0  0  0  0  0  0  0  0
    4.0137   -1.6591   -1.8328 C   0  0  0  0  0  0  0  0  0  0  0  0
    3.3034   -1.6271   -0.5792 O   0  0  0  0  0  0  0  0  0  0  0  0
    2.4032   -0.4012   -0.1201 P   0  0  0  0  0  0  0  0  0  0  0  0
    3.2800    1.3516    0.0370 S   0  0  0  0  0  0  0  0  0  0  0  0
    1.8035   -0.9797    1.2205 O   0  0  0  0  0  0  0  0  0  0  0  0
    2.2379   -0.5873    2.5429 C   0  0  0  0  0  0  0  0  0  0  0  0
    1.0278   -0.2264    3.3804 C   0  0  0  0  0  0  0  0  0  0  0  0
    0.7680   -0.4937   -1.4574 S   0  0  0  0  0  0  0  0  0  0  0  0
    0.0871    1.1398   -1.0612 C   0  0  0  0  0  0  0  0  0  0  0  0
   -0.8651    1.1566    0.4709 S   0  0  0  0  0  0  0  0  0  0  0  0
   -2.7318    0.4439   -0.3019 P   0  0  0  0  0  0  0  0  0  0  0  0
   -2.9356    0.5668   -2.2421 S   0  0  0  0  0  0  0  0  0  0  0  0
   -3.8264    1.2578    0.4740 O   0  0  0  0  0  0  0  0  0  0  0  0
   -3.8955    1.3448    1.9247 C   0  0  0  0  0  0  0  0  0  0  0  0
   -3.4754    2.7260    2.3848 C   0  0  0  0  0  0  0  0  0  0  0  0
   -2.9440   -1.0132    0.3122 O   0  0  0  0  0  0  0  0  0  0  0  0
   -2.2989   -2.1972   -0.1921 C   0  0  0  0  0  0  0  0  0  0  0  0
   -1.2600   -2.6932    0.7948 C   0  0  0  0  0  0  0  0  0  0  0  0
    5.3530   -0.0241   -1.4213 H   0  0  0  0  0  0  0  0  0  0  0  0
    5.9543   -1.6064   -0.9145 H   0  0  0  0  0  0  0  0  0  0  0  0
    5.9340   -1.1745   -2.6329 H   0  0  0  0  0  0  0  0  0  0  0  0
    4.0516   -2.7183   -2.0941 H   0  0  0  0  0  0  0  0  0  0  0  0
    3.4364   -1.1193   -2.5890 H   0  0  0  0  0  0  0  0  0  0  0  0
    2.7720   -1.4440    2.9579 H   0  0  0  0  0  0  0  0  0  0  0  0
    2.9231    0.2621    2.4530 H   0  0  0  0  0  0  0  0  0  0  0  0
    0.3428   -1.0679    3.4296 H   0  0  0  0  0  0  0  0  0  0  0  0
    1.3563    0.0279    4.3828 H   0  0  0  0  0  0  0  0  0  0  0  0
    0.5111    0.6257    2.9455 H   0  0  0  0  0  0  0  0  0  0  0  0
   -0.5639    1.4193   -1.8906 H   0  0  0  0  0  0  0  0  0  0  0  0
    0.9086    1.8468   -0.9368 H   0  0  0  0  0  0  0  0  0  0  0  0
   -4.9419    1.1482    2.1627 H   0  0  0  0  0  0  0  0  0  0  0  0
   -3.2659    0.5681    2.3610 H   0  0  0  0  0  0  0  0  0  0  0  0
   -3.6164    2.7990    3.4585 H   0  0  0  0  0  0  0  0  0  0  0  0
   -2.4290    2.9053    2.1501 H   0  0  0  0  0  0  0  0  0  0  0  0
   -4.0802    3.4816    1.8914 H   0  0  0  0  0  0  0  0  0  0  0  0
   -3.1010   -2.9274   -0.3180 H   0  0  0  0  0  0  0  0  0  0  0  0
   -1.8557   -1.9822   -1.1700 H   0  0  0  0  0  0  0  0  0  0  0  0
   -0.8403   -3.6243    0.4278 H   0  0  0  0  0  0  0  0  0  0  0  0
   -0.4560   -1.9701    0.9081 H   0  0  0  0  0  0  0  0  0  0  0  0
   -1.7214   -2.8638    1.7634 H   0  0  0  0  0  0  0  0  0  0  0  0
  1  2  1  0  0  0  0
  2  3  1  0  0  0  0
  3  4  2  0  0  0  0
  4  5  2  0  0  0  0
  4  6  2  0  0  0  0
  6  7  1  0  0  0  0
  7  8  1  0  0  0  0
  4  9  1  0  0  0  0
  9 10  1  0  0  0  0
 10 11  1  0  0  0  0
 11 12  1  0  0  0  0
 12 13  2  0  0  0  0
 12 14  2  0  0  0  0
 14 15  1  0  0  0  0
 15 16  1  0  0  0  0
 12 17  2  0  0  0  0
 17 18  1  0  0  0  0
 18 19  1  0  0  0  0
  1 20  1  0  0  0  0
  1 21  1  0  0  0  0
  1 22  1  0  0  0  0
  2 23  1  0  0  0  0
  2 24  1  0  0  0  0
  7 25  1  0  0  0  0
  7 26  1  0  0  0  0
  8 27  1  0  0  0  0
  8 28  1  0  0  0  0
  8 29  1  0  0  0  0
 10 30  1  0  0  0  0
 10 31  1  0  0  0  0
 15 32  1  0  0  0  0
 15 33  1  0  0  0  0
 16 34  1  0  0  0  0
 16 35  1  0  0  0  0
 16 36  1  0  0  0  0
 18 37  1  0  0  0  0
 18 38  1  0  0  0  0
 19 39  1  0  0  0  0
 19 40  1  0  0  0  0
 19 41  1  0  0  0  0
M  END
