 xtb: 6.7.1 (edcfbbe)
          04092505203D

 41 40  0     0  0            999 V2000
    4.2884    0.7562   -2.2629 C   0  0  0  0  0  0  0  0  0  0  0  0
    4.5855    0.1642   -0.9015 C   0  0  0  0  0  0  0  0  0  0  0  0
    3.6163    0.5402    0.0947 O   0  0  0  0  0  0  0  0  0  0  0  0
    2.0442    0.3386   -0.0218 P   0  0  0  0  0  0  0  0  0  0  0  0
    1.0249    1.6142   -1.1064 S   0  0  0  0  0  0  0  0  0  0  0  0
    1.6140    0.4523    1.4905 O   0  0  0  0  0  0  0  0  0  0  0  0
    2.2351   -0.3400    2.5408 C   0  0  0  0  0  0  0  0  0  0  0  0
    1.1647   -0.7793    3.5182 C   0  0  0  0  0  0  0  0  0  0  0  0
    1.8757   -1.7101   -0.5744 S   0  0  0  0  0  0  0  0  0  0  0  0
    0.1247   -1.7018   -1.0017 C   0  0  0  0  0  0  0  0  0  0  0  0
   -0.9444   -1.4009    0.4423 S   0  0  0  0  0  0  0  0  0  0  0  0
   -2.1697    0.1761   -0.2959 P   0  0  0  0  0  0  0  0  0  0  0  0
   -2.1997    0.4341   -2.2324 S   0  0  0  0  0  0  0  0  0  0  0  0
   -1.7694    1.4589    0.5275 O   0  0  0  0  0  0  0  0  0  0  0  0
   -1.8435    1.4933    1.9762 C   0  0  0  0  0  0  0  0  0  0  0  0
   -0.9391    2.6060    2.4615 C   0  0  0  0  0  0  0  0  0  0  0  0
   -3.5873   -0.1560    0.3565 O   0  0  0  0  0  0  0  0  0  0  0  0
   -4.5665   -0.9946   -0.2822 C   0  0  0  0  0  0  0  0  0  0  0  0
   -4.0988   -2.4279   -0.4307 C   0  0  0  0  0  0  0  0  0  0  0  0
    5.0890    0.5031   -2.9504 H   0  0  0  0  0  0  0  0  0  0  0  0
    3.3500    0.3601   -2.6494 H   0  0  0  0  0  0  0  0  0  0  0  0
    4.1982    1.8379   -2.1957 H   0  0  0  0  0  0  0  0  0  0  0  0
    5.5260    0.5435   -0.4982 H   0  0  0  0  0  0  0  0  0  0  0  0
    4.6146   -0.9277   -0.9528 H   0  0  0  0  0  0  0  0  0  0  0  0
    2.7334   -1.2008    2.0864 H   0  0  0  0  0  0  0  0  0  0  0  0
    2.9790    0.3008    3.0167 H   0  0  0  0  0  0  0  0  0  0  0  0
    0.4356   -1.4128    3.0186 H   0  0  0  0  0  0  0  0  0  0  0  0
    1.6317   -1.3397    4.3217 H   0  0  0  0  0  0  0  0  0  0  0  0
    0.6578    0.0872    3.9329 H   0  0  0  0  0  0  0  0  0  0  0  0
   -0.0934   -2.6922   -1.3933 H   0  0  0  0  0  0  0  0  0  0  0  0
   -0.0777   -0.9272   -1.7470 H   0  0  0  0  0  0  0  0  0  0  0  0
   -2.8862    1.6686    2.2487 H   0  0  0  0  0  0  0  0  0  0  0  0
   -1.5258    0.5201    2.3633 H   0  0  0  0  0  0  0  0  0  0  0  0
    0.0867    2.4082    2.1598 H   0  0  0  0  0  0  0  0  0  0  0  0
   -1.2488    3.5524    2.0270 H   0  0  0  0  0  0  0  0  0  0  0  0
   -0.9959    2.6678    3.5436 H   0  0  0  0  0  0  0  0  0  0  0  0
   -5.4349   -0.9195    0.3738 H   0  0  0  0  0  0  0  0  0  0  0  0
   -4.7991   -0.5643   -1.2610 H   0  0  0  0  0  0  0  0  0  0  0  0
   -4.9226   -3.0347   -0.7922 H   0  0  0  0  0  0  0  0  0  0  0  0
   -3.2840   -2.4775   -1.1517 H   0  0  0  0  0  0  0  0  0  0  0  0
   -3.7538   -2.8166    0.5240 H   0  0  0  0  0  0  0  0  0  0  0  0
  1  2  1  0  0  0  0
  2  3  1  0  0  0  0
  3  4  2  0  0  0  0
  4  5  2  0  0  0  0
  4  6  2  0  0  0  0
  6  7  1  0  0  0  0
  7  8  1  0  0  0  0
  4  9  1  0  0  0  0
  9 10  1  0  0  0  0
 10 11  1  0  0  0  0
 11 12  1  0  0  0  0
 12 13  2  0  0  0  0
 12 14  2  0  0  0  0
 14 15  1  0  0  0  0
 15 16  1  0  0  0  0
 12 17  2  0  0  0  0
 17 18  1  0  0  0  0
 18 19  1  0  0  0  0
  1 20  1  0  0  0  0
  1 21  1  0  0  0  0
  1 22  1  0  0  0  0
  2 23  1  0  0  0  0
  2 24  1  0  0  0  0
  7 25  1  0  0  0  0
  7 26  1  0  0  0  0
  8 27  1  0  0  0  0
  8 28  1  0  0  0  0
  8 29  1  0  0  0  0
 10 30  1  0  0  0  0
 10 31  1  0  0  0  0
 15 32  1  0  0  0  0
 15 33  1  0  0  0  0
 16 34  1  0  0  0  0
 16 35  1  0  0  0  0
 16 36  1  0  0  0  0
 18 37  1  0  0  0  0
 18 38  1  0  0  0  0
 19 39  1  0  0  0  0
 19 40  1  0  0  0  0
 19 41  1  0  0  0  0
M  END
