 xtb: 6.7.1 (edcfbbe)
          04092505203D

 41 40  0     0  0            999 V2000
    3.7711   -1.3315   -2.3912 C   0  0  0  0  0  0  0  0  0  0  0  0
    4.1884   -0.1094   -1.5975 C   0  0  0  0  0  0  0  0  0  0  0  0
    3.6334   -0.1025   -0.2741 O   0  0  0  0  0  0  0  0  0  0  0  0
    2.0751    0.0774    0.0204 P   0  0  0  0  0  0  0  0  0  0  0  0
    1.2186    1.3782   -1.1751 S   0  0  0  0  0  0  0  0  0  0  0  0
    2.1195    0.3648    1.5714 O   0  0  0  0  0  0  0  0  0  0  0  0
    2.1951    1.6909    2.1291 C   0  0  0  0  0  0  0  0  0  0  0  0
    3.4765    2.4022    1.7493 C   0  0  0  0  0  0  0  0  0  0  0  0
    1.3099   -1.8912    0.0647 S   0  0  0  0  0  0  0  0  0  0  0  0
    0.0245   -1.7862   -1.2312 C   0  0  0  0  0  0  0  0  0  0  0  0
   -1.6629   -2.0454   -0.6207 S   0  0  0  0  0  0  0  0  0  0  0  0
   -2.1124   -0.0987    0.0651 P   0  0  0  0  0  0  0  0  0  0  0  0
   -1.0676    0.5788    1.5911 S   0  0  0  0  0  0  0  0  0  0  0  0
   -3.6759   -0.1226    0.3415 O   0  0  0  0  0  0  0  0  0  0  0  0
   -4.2231   -0.4833    1.6206 C   0  0  0  0  0  0  0  0  0  0  0  0
   -4.0489   -1.9602    1.9074 C   0  0  0  0  0  0  0  0  0  0  0  0
   -2.0316    0.6635   -1.3186 O   0  0  0  0  0  0  0  0  0  0  0  0
   -2.7062    1.9024   -1.6270 C   0  0  0  0  0  0  0  0  0  0  0  0
   -2.2383    3.0477   -0.7546 C   0  0  0  0  0  0  0  0  0  0  0  0
    3.9717   -2.2365   -1.8234 H   0  0  0  0  0  0  0  0  0  0  0  0
    2.7059   -1.2838   -2.6145 H   0  0  0  0  0  0  0  0  0  0  0  0
    4.3248   -1.3593   -3.3242 H   0  0  0  0  0  0  0  0  0  0  0  0
    3.8740    0.8063   -2.1092 H   0  0  0  0  0  0  0  0  0  0  0  0
    5.2660   -0.0887   -1.4289 H   0  0  0  0  0  0  0  0  0  0  0  0
    1.3161    2.2531    1.7970 H   0  0  0  0  0  0  0  0  0  0  0  0
    2.1244    1.5195    3.2041 H   0  0  0  0  0  0  0  0  0  0  0  0
    3.4952    2.5874    0.6757 H   0  0  0  0  0  0  0  0  0  0  0  0
    3.5263    3.3521    2.2723 H   0  0  0  0  0  0  0  0  0  0  0  0
    4.3358    1.7928    2.0170 H   0  0  0  0  0  0  0  0  0  0  0  0
    0.2040   -2.5964   -1.9325 H   0  0  0  0  0  0  0  0  0  0  0  0
    0.0855   -0.8094   -1.7172 H   0  0  0  0  0  0  0  0  0  0  0  0
   -3.7313    0.1201    2.3909 H   0  0  0  0  0  0  0  0  0  0  0  0
   -5.2753   -0.2060    1.5444 H   0  0  0  0  0  0  0  0  0  0  0  0
   -2.9907   -2.1927    2.0233 H   0  0  0  0  0  0  0  0  0  0  0  0
   -4.5679   -2.2137    2.8261 H   0  0  0  0  0  0  0  0  0  0  0  0
   -4.4472   -2.5537    1.0885 H   0  0  0  0  0  0  0  0  0  0  0  0
   -2.4504    2.0718   -2.6743 H   0  0  0  0  0  0  0  0  0  0  0  0
   -3.7810    1.7394   -1.5221 H   0  0  0  0  0  0  0  0  0  0  0  0
   -2.4966    2.8594    0.2867 H   0  0  0  0  0  0  0  0  0  0  0  0
   -1.1576    3.1538   -0.8297 H   0  0  0  0  0  0  0  0  0  0  0  0
   -2.7125    3.9680   -1.0797 H   0  0  0  0  0  0  0  0  0  0  0  0
  1  2  1  0  0  0  0
  2  3  1  0  0  0  0
  3  4  2  0  0  0  0
  4  5  2  0  0  0  0
  4  6  2  0  0  0  0
  6  7  1  0  0  0  0
  7  8  1  0  0  0  0
  4  9  1  0  0  0  0
  9 10  1  0  0  0  0
 10 11  1  0  0  0  0
 11 12  1  0  0  0  0
 12 13  2  0  0  0  0
 12 14  2  0  0  0  0
 14 15  1  0  0  0  0
 15 16  1  0  0  0  0
 12 17  2  0  0  0  0
 17 18  1  0  0  0  0
 18 19  1  0  0  0  0
  1 20  1  0  0  0  0
  1 21  1  0  0  0  0
  1 22  1  0  0  0  0
  2 23  1  0  0  0  0
  2 24  1  0  0  0  0
  7 25  1  0  0  0  0
  7 26  1  0  0  0  0
  8 27  1  0  0  0  0
  8 28  1  0  0  0  0
  8 29  1  0  0  0  0
 10 30  1  0  0  0  0
 10 31  1  0  0  0  0
 15 32  1  0  0  0  0
 15 33  1  0  0  0  0
 16 34  1  0  0  0  0
 16 35  1  0  0  0  0
 16 36  1  0  0  0  0
 18 37  1  0  0  0  0
 18 38  1  0  0  0  0
 19 39  1  0  0  0  0
 19 40  1  0  0  0  0
 19 41  1  0  0  0  0
M  END
