 xtb: 6.7.1 (edcfbbe)
          04092505213D

 41 40  0     0  0            999 V2000
    4.1252    2.6871   -0.9732 C   0  0  0  0  0  0  0  0  0  0  0  0
    3.9350    1.2724   -1.4858 C   0  0  0  0  0  0  0  0  0  0  0  0
    3.7675    0.3335   -0.4085 O   0  0  0  0  0  0  0  0  0  0  0  0
    2.3727    0.0345    0.2913 P   0  0  0  0  0  0  0  0  0  0  0  0
    1.6679    1.4645    1.4362 S   0  0  0  0  0  0  0  0  0  0  0  0
    2.7320   -1.3098    1.0347 O   0  0  0  0  0  0  0  0  0  0  0  0
    2.6868   -1.4874    2.4686 C   0  0  0  0  0  0  0  0  0  0  0  0
    1.6616   -2.5403    2.8385 C   0  0  0  0  0  0  0  0  0  0  0  0
    1.1925   -0.6109   -1.3682 S   0  0  0  0  0  0  0  0  0  0  0  0
    0.1208   -1.7854   -0.4943 C   0  0  0  0  0  0  0  0  0  0  0  0
   -0.9468   -1.0164    0.7422 S   0  0  0  0  0  0  0  0  0  0  0  0
   -2.2344   -0.0125   -0.6325 P   0  0  0  0  0  0  0  0  0  0  0  0
   -2.4986   -0.9150   -2.3471 S   0  0  0  0  0  0  0  0  0  0  0  0
   -1.6321    1.4217   -0.8855 O   0  0  0  0  0  0  0  0  0  0  0  0
   -1.4638    2.4245    0.1444 C   0  0  0  0  0  0  0  0  0  0  0  0
   -2.6111    3.4118    0.1163 C   0  0  0  0  0  0  0  0  0  0  0  0
   -3.5064    0.3119    0.2612 O   0  0  0  0  0  0  0  0  0  0  0  0
   -4.2109   -0.6413    1.0803 C   0  0  0  0  0  0  0  0  0  0  0  0
   -4.6487   -1.8689    0.3100 C   0  0  0  0  0  0  0  0  0  0  0  0
    4.3081    3.3501   -1.8126 H   0  0  0  0  0  0  0  0  0  0  0  0
    3.2374    3.0227   -0.4417 H   0  0  0  0  0  0  0  0  0  0  0  0
    4.9710    2.7255   -0.2922 H   0  0  0  0  0  0  0  0  0  0  0  0
    4.8249    0.9191   -2.0105 H   0  0  0  0  0  0  0  0  0  0  0  0
    3.0709    1.2062   -2.1554 H   0  0  0  0  0  0  0  0  0  0  0  0
    3.6942   -1.7960    2.7530 H   0  0  0  0  0  0  0  0  0  0  0  0
    2.4512   -0.5265    2.9383 H   0  0  0  0  0  0  0  0  0  0  0  0
    0.6593   -2.2042    2.5776 H   0  0  0  0  0  0  0  0  0  0  0  0
    1.8744   -3.4722    2.3218 H   0  0  0  0  0  0  0  0  0  0  0  0
    1.7065   -2.7103    3.9093 H   0  0  0  0  0  0  0  0  0  0  0  0
    0.7294   -2.5276    0.0155 H   0  0  0  0  0  0  0  0  0  0  0  0
   -0.5008   -2.2378   -1.2691 H   0  0  0  0  0  0  0  0  0  0  0  0
   -1.3791    1.9345    1.1184 H   0  0  0  0  0  0  0  0  0  0  0  0
   -0.5135    2.9086   -0.0894 H   0  0  0  0  0  0  0  0  0  0  0  0
   -2.4293    4.1843    0.8568 H   0  0  0  0  0  0  0  0  0  0  0  0
   -2.6849    3.8654   -0.8682 H   0  0  0  0  0  0  0  0  0  0  0  0
   -3.5473    2.9077    0.3414 H   0  0  0  0  0  0  0  0  0  0  0  0
   -3.5612   -0.9184    1.9152 H   0  0  0  0  0  0  0  0  0  0  0  0
   -5.0681   -0.0762    1.4504 H   0  0  0  0  0  0  0  0  0  0  0  0
   -5.2351   -1.5822   -0.5597 H   0  0  0  0  0  0  0  0  0  0  0  0
   -3.7799   -2.4288   -0.0330 H   0  0  0  0  0  0  0  0  0  0  0  0
   -5.2474   -2.5037    0.9551 H   0  0  0  0  0  0  0  0  0  0  0  0
  1  2  1  0  0  0  0
  2  3  1  0  0  0  0
  3  4  2  0  0  0  0
  4  5  2  0  0  0  0
  4  6  2  0  0  0  0
  6  7  1  0  0  0  0
  7  8  1  0  0  0  0
  4  9  1  0  0  0  0
  9 10  1  0  0  0  0
 10 11  1  0  0  0  0
 11 12  1  0  0  0  0
 12 13  2  0  0  0  0
 12 14  2  0  0  0  0
 14 15  1  0  0  0  0
 15 16  1  0  0  0  0
 12 17  2  0  0  0  0
 17 18  1  0  0  0  0
 18 19  1  0  0  0  0
  1 20  1  0  0  0  0
  1 21  1  0  0  0  0
  1 22  1  0  0  0  0
  2 23  1  0  0  0  0
  2 24  1  0  0  0  0
  7 25  1  0  0  0  0
  7 26  1  0  0  0  0
  8 27  1  0  0  0  0
  8 28  1  0  0  0  0
  8 29  1  0  0  0  0
 10 30  1  0  0  0  0
 10 31  1  0  0  0  0
 15 32  1  0  0  0  0
 15 33  1  0  0  0  0
 16 34  1  0  0  0  0
 16 35  1  0  0  0  0
 16 36  1  0  0  0  0
 18 37  1  0  0  0  0
 18 38  1  0  0  0  0
 19 39  1  0  0  0  0
 19 40  1  0  0  0  0
 19 41  1  0  0  0  0
M  END
