 xtb: 6.7.1 (edcfbbe)
          04092505213D

 41 40  0     0  0            999 V2000
    4.5577   -2.2501    0.3161 C   0  0  0  0  0  0  0  0  0  0  0  0
    4.1071   -2.0562   -1.1173 C   0  0  0  0  0  0  0  0  0  0  0  0
    2.7110   -1.7051   -1.2047 O   0  0  0  0  0  0  0  0  0  0  0  0
    2.1413   -0.3501   -0.6111 P   0  0  0  0  0  0  0  0  0  0  0  0
    3.3012    1.2299   -0.6973 S   0  0  0  0  0  0  0  0  0  0  0  0
    1.6719   -0.7554    0.8547 O   0  0  0  0  0  0  0  0  0  0  0  0
    1.8615    0.0473    2.0383 C   0  0  0  0  0  0  0  0  0  0  0  0
    0.7434   -0.2516    3.0152 C   0  0  0  0  0  0  0  0  0  0  0  0
    0.4131   -0.3280   -1.8297 S   0  0  0  0  0  0  0  0  0  0  0  0
   -0.0038    1.4149   -1.5612 C   0  0  0  0  0  0  0  0  0  0  0  0
   -0.4854    1.7440    0.1532 S   0  0  0  0  0  0  0  0  0  0  0  0
   -2.1663    0.4506    0.1698 P   0  0  0  0  0  0  0  0  0  0  0  0
   -3.2386    0.4349   -1.4753 S   0  0  0  0  0  0  0  0  0  0  0  0
   -2.9348    0.9073    1.4791 O   0  0  0  0  0  0  0  0  0  0  0  0
   -3.6885    2.1375    1.5206 C   0  0  0  0  0  0  0  0  0  0  0  0
   -4.5968    2.0827    2.7320 C   0  0  0  0  0  0  0  0  0  0  0  0
   -1.6020   -0.9366    0.6688 O   0  0  0  0  0  0  0  0  0  0  0  0
   -1.9607   -2.2135    0.0949 C   0  0  0  0  0  0  0  0  0  0  0  0
   -0.7891   -3.1593    0.2586 C   0  0  0  0  0  0  0  0  0  0  0  0
    4.5262   -1.2972    0.8442 H   0  0  0  0  0  0  0  0  0  0  0  0
    3.9086   -2.9600    0.8223 H   0  0  0  0  0  0  0  0  0  0  0  0
    5.5776   -2.6221    0.3255 H   0  0  0  0  0  0  0  0  0  0  0  0
    4.1789   -2.9793   -1.6939 H   0  0  0  0  0  0  0  0  0  0  0  0
    4.6915   -1.2680   -1.6020 H   0  0  0  0  0  0  0  0  0  0  0  0
    2.8320   -0.2222    2.4631 H   0  0  0  0  0  0  0  0  0  0  0  0
    1.8791    1.1050    1.7593 H   0  0  0  0  0  0  0  0  0  0  0  0
    0.7355   -1.3099    3.2587 H   0  0  0  0  0  0  0  0  0  0  0  0
    0.9034    0.3261    3.9197 H   0  0  0  0  0  0  0  0  0  0  0  0
   -0.2201    0.0153    2.5877 H   0  0  0  0  0  0  0  0  0  0  0  0
   -0.8367    1.6446   -2.2253 H   0  0  0  0  0  0  0  0  0  0  0  0
    0.8619    2.0420   -1.7735 H   0  0  0  0  0  0  0  0  0  0  0  0
   -2.9821    2.9695    1.5865 H   0  0  0  0  0  0  0  0  0  0  0  0
   -4.2612    2.2258    0.5914 H   0  0  0  0  0  0  0  0  0  0  0  0
   -5.2842    1.2461    2.6454 H   0  0  0  0  0  0  0  0  0  0  0  0
   -4.0040    1.9597    3.6336 H   0  0  0  0  0  0  0  0  0  0  0  0
   -5.1621    3.0066    2.7949 H   0  0  0  0  0  0  0  0  0  0  0  0
   -2.8402   -2.5765    0.6317 H   0  0  0  0  0  0  0  0  0  0  0  0
   -2.2178   -2.0695   -0.9598 H   0  0  0  0  0  0  0  0  0  0  0  0
    0.0785   -2.7889   -0.2830 H   0  0  0  0  0  0  0  0  0  0  0  0
   -0.5319   -3.2522    1.3095 H   0  0  0  0  0  0  0  0  0  0  0  0
   -1.0640   -4.1325   -0.1349 H   0  0  0  0  0  0  0  0  0  0  0  0
  1  2  1  0  0  0  0
  2  3  1  0  0  0  0
  3  4  2  0  0  0  0
  4  5  2  0  0  0  0
  4  6  2  0  0  0  0
  6  7  1  0  0  0  0
  7  8  1  0  0  0  0
  4  9  1  0  0  0  0
  9 10  1  0  0  0  0
 10 11  1  0  0  0  0
 11 12  1  0  0  0  0
 12 13  2  0  0  0  0
 12 14  2  0  0  0  0
 14 15  1  0  0  0  0
 15 16  1  0  0  0  0
 12 17  2  0  0  0  0
 17 18  1  0  0  0  0
 18 19  1  0  0  0  0
  1 20  1  0  0  0  0
  1 21  1  0  0  0  0
  1 22  1  0  0  0  0
  2 23  1  0  0  0  0
  2 24  1  0  0  0  0
  7 25  1  0  0  0  0
  7 26  1  0  0  0  0
  8 27  1  0  0  0  0
  8 28  1  0  0  0  0
  8 29  1  0  0  0  0
 10 30  1  0  0  0  0
 10 31  1  0  0  0  0
 15 32  1  0  0  0  0
 15 33  1  0  0  0  0
 16 34  1  0  0  0  0
 16 35  1  0  0  0  0
 16 36  1  0  0  0  0
 18 37  1  0  0  0  0
 18 38  1  0  0  0  0
 19 39  1  0  0  0  0
 19 40  1  0  0  0  0
 19 41  1  0  0  0  0
M  END
