 xtb: 6.7.1 (edcfbbe)
          04092505213D

 41 40  0     0  0            999 V2000
    4.3540   -0.2635   -1.6199 C   0  0  0  0  0  0  0  0  0  0  0  0
    2.9929    0.3649   -1.8220 C   0  0  0  0  0  0  0  0  0  0  0  0
    2.4298    0.9029   -0.6013 O   0  0  0  0  0  0  0  0  0  0  0  0
    2.2413    0.1552    0.7742 P   0  0  0  0  0  0  0  0  0  0  0  0
    1.0156    1.1371    1.9397 S   0  0  0  0  0  0  0  0  0  0  0  0
    3.7256    0.0300    1.3233 O   0  0  0  0  0  0  0  0  0  0  0  0
    4.0237   -0.2041    2.7108 C   0  0  0  0  0  0  0  0  0  0  0  0
    3.5728   -1.5739    3.1752 C   0  0  0  0  0  0  0  0  0  0  0  0
    1.6693   -1.8504    0.3136 S   0  0  0  0  0  0  0  0  0  0  0  0
   -0.0888   -1.5329    0.1330 C   0  0  0  0  0  0  0  0  0  0  0  0
   -0.4198   -0.6729   -1.4595 S   0  0  0  0  0  0  0  0  0  0  0  0
   -2.3015    0.1244   -1.0030 P   0  0  0  0  0  0  0  0  0  0  0  0
   -3.2098    1.0797   -2.4517 S   0  0  0  0  0  0  0  0  0  0  0  0
   -2.1203    0.9984    0.3214 O   0  0  0  0  0  0  0  0  0  0  0  0
   -1.8603    2.4116    0.2864 C   0  0  0  0  0  0  0  0  0  0  0  0
   -2.2703    2.9937    1.6229 C   0  0  0  0  0  0  0  0  0  0  0  0
   -2.9751   -1.1816   -0.4108 O   0  0  0  0  0  0  0  0  0  0  0  0
   -4.3684   -1.1942   -0.0150 C   0  0  0  0  0  0  0  0  0  0  0  0
   -5.2316   -1.7485   -1.1301 C   0  0  0  0  0  0  0  0  0  0  0  0
    5.0293    0.4441   -1.1461 H   0  0  0  0  0  0  0  0  0  0  0  0
    4.2729   -1.1492   -0.9931 H   0  0  0  0  0  0  0  0  0  0  0  0
    4.7545   -0.5509   -2.5872 H   0  0  0  0  0  0  0  0  0  0  0  0
    2.2795   -0.3566   -2.2321 H   0  0  0  0  0  0  0  0  0  0  0  0
    3.0424    1.2371   -2.4756 H   0  0  0  0  0  0  0  0  0  0  0  0
    5.1081   -0.0980    2.7633 H   0  0  0  0  0  0  0  0  0  0  0  0
    3.5450    0.5806    3.3052 H   0  0  0  0  0  0  0  0  0  0  0  0
    3.9434   -1.7498    4.1800 H   0  0  0  0  0  0  0  0  0  0  0  0
    2.4855   -1.6256    3.1873 H   0  0  0  0  0  0  0  0  0  0  0  0
    3.9534   -2.3444    2.5097 H   0  0  0  0  0  0  0  0  0  0  0  0
   -0.4321   -0.8950    0.9500 H   0  0  0  0  0  0  0  0  0  0  0  0
   -0.5943   -2.4943    0.1261 H   0  0  0  0  0  0  0  0  0  0  0  0
   -0.7912    2.5600    0.1089 H   0  0  0  0  0  0  0  0  0  0  0  0
   -2.4263    2.8496   -0.5429 H   0  0  0  0  0  0  0  0  0  0  0  0
   -2.0937    4.0640    1.6116 H   0  0  0  0  0  0  0  0  0  0  0  0
   -3.3228    2.8024    1.8109 H   0  0  0  0  0  0  0  0  0  0  0  0
   -1.6757    2.5413    2.4129 H   0  0  0  0  0  0  0  0  0  0  0  0
   -4.3956   -1.8332    0.8692 H   0  0  0  0  0  0  0  0  0  0  0  0
   -4.6746   -0.1805    0.2553 H   0  0  0  0  0  0  0  0  0  0  0  0
   -4.8849   -2.7381   -1.4139 H   0  0  0  0  0  0  0  0  0  0  0  0
   -6.2602   -1.8104   -0.7895 H   0  0  0  0  0  0  0  0  0  0  0  0
   -5.1841   -1.0976   -2.0006 H   0  0  0  0  0  0  0  0  0  0  0  0
  1  2  1  0  0  0  0
  2  3  1  0  0  0  0
  3  4  2  0  0  0  0
  4  5  2  0  0  0  0
  4  6  2  0  0  0  0
  6  7  1  0  0  0  0
  7  8  1  0  0  0  0
  4  9  1  0  0  0  0
  9 10  1  0  0  0  0
 10 11  1  0  0  0  0
 11 12  1  0  0  0  0
 12 13  2  0  0  0  0
 12 14  2  0  0  0  0
 14 15  1  0  0  0  0
 15 16  1  0  0  0  0
 12 17  2  0  0  0  0
 17 18  1  0  0  0  0
 18 19  1  0  0  0  0
  1 20  1  0  0  0  0
  1 21  1  0  0  0  0
  1 22  1  0  0  0  0
  2 23  1  0  0  0  0
  2 24  1  0  0  0  0
  7 25  1  0  0  0  0
  7 26  1  0  0  0  0
  8 27  1  0  0  0  0
  8 28  1  0  0  0  0
  8 29  1  0  0  0  0
 10 30  1  0  0  0  0
 10 31  1  0  0  0  0
 15 32  1  0  0  0  0
 15 33  1  0  0  0  0
 16 34  1  0  0  0  0
 16 35  1  0  0  0  0
 16 36  1  0  0  0  0
 18 37  1  0  0  0  0
 18 38  1  0  0  0  0
 19 39  1  0  0  0  0
 19 40  1  0  0  0  0
 19 41  1  0  0  0  0
M  END
