 xtb: 6.7.1 (edcfbbe)
          04032519423D

 20 20  0     0  0            999 V2000
    0.6086    1.7026   -0.0485 C   0  0  0  0  0  0  0  0  0  0  0  0
    1.3962    0.4072   -0.2752 C   0  0  0  0  0  0  0  0  0  0  0  0
    1.5869    0.2734   -1.3505 H   0  0  0  0  0  0  0  0  0  0  0  0
    0.5573   -0.7869    0.2083 C   0  0  0  0  0  0  0  0  0  0  0  0
    0.3991   -0.6868    1.2937 H   0  0  0  0  0  0  0  0  0  0  0  0
   -0.8050   -0.7683   -0.4998 C   0  0  0  0  0  0  0  0  0  0  0  0
   -0.6441   -0.9334   -1.5694 H   0  0  0  0  0  0  0  0  0  0  0  0
   -1.4714    0.6084   -0.2891 C   0  0  0  0  0  0  0  0  0  0  0  0
   -2.3604    0.6766   -0.9312 H   0  0  0  0  0  0  0  0  0  0  0  0
   -0.6473    1.6652   -0.7099 O   0  0  0  0  0  0  0  0  0  0  0  0
   -1.8079    0.7056    1.0601 O   0  0  0  0  0  0  0  0  0  0  0  0
   -1.6588   -1.7927   -0.0786 O   0  0  0  0  0  0  0  0  0  0  0  0
    1.1981   -2.0046   -0.0789 O   0  0  0  0  0  0  0  0  0  0  0  0
    2.6001    0.3865    0.4553 O   0  0  0  0  0  0  0  0  0  0  0  0
    1.1242    2.5647   -0.4719 H   0  0  0  0  0  0  0  0  0  0  0  0
    0.4682    1.8452    1.0301 H   0  0  0  0  0  0  0  0  0  0  0  0
   -2.3836    1.4704    1.2111 H   0  0  0  0  0  0  0  0  0  0  0  0
   -1.8744   -1.6526    0.8572 H   0  0  0  0  0  0  0  0  0  0  0  0
    2.0892   -1.9699    0.3018 H   0  0  0  0  0  0  0  0  0  0  0  0
    3.2040    1.0633    0.1192 H   0  0  0  0  0  0  0  0  0  0  0  0
  1  2  1  0  0  0  0
  2  3  1  0  0  0  0
  2  4  1  0  0  0  0
  4  5  1  0  0  0  0
  4  6  1  0  0  0  0
  6  7  1  0  0  0  0
  6  8  1  0  0  0  0
  8  9  1  0  0  0  0
  1 10  1  0  0  0  0
  8 10  1  0  0  0  0
  8 11  1  0  0  0  0
  6 12  1  0  0  0  0
  4 13  1  0  0  0  0
  2 14  1  0  0  0  0
  1 15  1  0  0  0  0
  1 16  1  0  0  0  0
 11 17  1  0  0  0  0
 12 18  1  0  0  0  0
 13 19  1  0  0  0  0
 14 20  1  0  0  0  0
M  END
