 xtb: 6.7.1 (edcfbbe)
          04032519423D

 20 20  0     0  0            999 V2000
    0.8086    1.3250   -1.0119 C   0  0  0  0  0  0  0  0  0  0  0  0
    1.4400    0.3309   -0.0291 C   0  0  0  0  0  0  0  0  0  0  0  0
    2.4475    0.0849   -0.3803 H   0  0  0  0  0  0  0  0  0  0  0  0
    0.6160   -0.9847    0.0440 C   0  0  0  0  0  0  0  0  0  0  0  0
    0.5767   -1.2887    1.0964 H   0  0  0  0  0  0  0  0  0  0  0  0
   -0.8213   -0.7590   -0.4640 C   0  0  0  0  0  0  0  0  0  0  0  0
   -0.8409   -0.8201   -1.5581 H   0  0  0  0  0  0  0  0  0  0  0  0
   -1.2899    0.6503   -0.0638 C   0  0  0  0  0  0  0  0  0  0  0  0
   -2.3280    0.7944   -0.3953 H   0  0  0  0  0  0  0  0  0  0  0  0
   -0.5437    1.6553   -0.6943 O   0  0  0  0  0  0  0  0  0  0  0  0
   -1.2076    0.7545    1.3337 O   0  0  0  0  0  0  0  0  0  0  0  0
   -1.7215   -1.7376   -0.0254 O   0  0  0  0  0  0  0  0  0  0  0  0
    1.2496   -2.0546   -0.6093 O   0  0  0  0  0  0  0  0  0  0  0  0
    1.6226    0.9029    1.2414 O   0  0  0  0  0  0  0  0  0  0  0  0
    0.8492    0.9182   -2.0289 H   0  0  0  0  0  0  0  0  0  0  0  0
    1.3507    2.2717   -0.9806 H   0  0  0  0  0  0  0  0  0  0  0  0
   -1.6758    1.5478    1.6347 H   0  0  0  0  0  0  0  0  0  0  0  0
   -1.7690   -1.7202    0.9426 H   0  0  0  0  0  0  0  0  0  0  0  0
    1.2015   -1.9419   -1.5690 H   0  0  0  0  0  0  0  0  0  0  0  0
    0.7433    1.0626    1.6297 H   0  0  0  0  0  0  0  0  0  0  0  0
  1  2  1  0  0  0  0
  2  3  1  0  0  0  0
  2  4  1  0  0  0  0
  4  5  1  0  0  0  0
  4  6  1  0  0  0  0
  6  7  1  0  0  0  0
  6  8  1  0  0  0  0
  8  9  1  0  0  0  0
  1 10  1  0  0  0  0
  8 10  1  0  0  0  0
  8 11  1  0  0  0  0
  6 12  1  0  0  0  0
  4 13  1  0  0  0  0
  2 14  1  0  0  0  0
  1 15  1  0  0  0  0
  1 16  1  0  0  0  0
 11 17  1  0  0  0  0
 12 18  1  0  0  0  0
 13 19  1  0  0  0  0
 14 20  1  0  0  0  0
M  END
