 xtb: 6.7.1 (edcfbbe)
          04092505203D

 41 40  0     0  0            999 V2000
    5.6600    0.8006   -1.1151 C   0  0  0  0  0  0  0  0  0  0  0  0
    4.2651    0.2505   -1.3334 C   0  0  0  0  0  0  0  0  0  0  0  0
    3.5781    0.2727   -0.0669 O   0  0  0  0  0  0  0  0  0  0  0  0
    1.9975    0.1714    0.0188 P   0  0  0  0  0  0  0  0  0  0  0  0
    1.0406    1.4710   -1.1011 S   0  0  0  0  0  0  0  0  0  0  0  0
    1.7109    0.4090    1.5466 O   0  0  0  0  0  0  0  0  0  0  0  0
    1.9265   -0.5386    2.6276 C   0  0  0  0  0  0  0  0  0  0  0  0
    3.3426   -1.0665    2.6758 C   0  0  0  0  0  0  0  0  0  0  0  0
    1.6239   -1.8759   -0.4174 S   0  0  0  0  0  0  0  0  0  0  0  0
   -0.1413   -1.7479   -0.7748 C   0  0  0  0  0  0  0  0  0  0  0  0
   -1.0726   -1.0522    0.6272 S   0  0  0  0  0  0  0  0  0  0  0  0
   -2.2699    0.3983   -0.3735 P   0  0  0  0  0  0  0  0  0  0  0  0
   -2.2251    0.3783   -2.3292 S   0  0  0  0  0  0  0  0  0  0  0  0
   -1.9158    1.8049    0.2385 O   0  0  0  0  0  0  0  0  0  0  0  0
   -1.4742    2.0913    1.5852 C   0  0  0  0  0  0  0  0  0  0  0  0
   -2.3865    1.5068    2.6413 C   0  0  0  0  0  0  0  0  0  0  0  0
   -3.7266    0.1612    0.2285 O   0  0  0  0  0  0  0  0  0  0  0  0
   -4.6727   -0.7511   -0.3513 C   0  0  0  0  0  0  0  0  0  0  0  0
   -4.2161   -2.1936   -0.2662 C   0  0  0  0  0  0  0  0  0  0  0  0
    5.6046    1.8222   -0.7498 H   0  0  0  0  0  0  0  0  0  0  0  0
    6.1885    0.1930   -0.3867 H   0  0  0  0  0  0  0  0  0  0  0  0
    6.1996    0.7858   -2.0563 H   0  0  0  0  0  0  0  0  0  0  0  0
    4.2937   -0.7836   -1.6871 H   0  0  0  0  0  0  0  0  0  0  0  0
    3.7006    0.8580   -2.0492 H   0  0  0  0  0  0  0  0  0  0  0  0
    1.6839    0.0460    3.5160 H   0  0  0  0  0  0  0  0  0  0  0  0
    1.2031   -1.3504    2.5094 H   0  0  0  0  0  0  0  0  0  0  0  0
    3.4605   -1.6739    3.5679 H   0  0  0  0  0  0  0  0  0  0  0  0
    3.5498   -1.6795    1.8012 H   0  0  0  0  0  0  0  0  0  0  0  0
    4.0505   -0.2424    2.7047 H   0  0  0  0  0  0  0  0  0  0  0  0
   -0.4833   -2.7634   -0.9591 H   0  0  0  0  0  0  0  0  0  0  0  0
   -0.3074   -1.1089   -1.6471 H   0  0  0  0  0  0  0  0  0  0  0  0
   -0.4500    1.7206    1.6910 H   0  0  0  0  0  0  0  0  0  0  0  0
   -1.4651    3.1822    1.6133 H   0  0  0  0  0  0  0  0  0  0  0  0
   -3.4068    1.8458    2.4822 H   0  0  0  0  0  0  0  0  0  0  0  0
   -2.3656    0.4187    2.5986 H   0  0  0  0  0  0  0  0  0  0  0  0
   -2.0459    1.8300    3.6200 H   0  0  0  0  0  0  0  0  0  0  0  0
   -5.5824   -0.5812    0.2264 H   0  0  0  0  0  0  0  0  0  0  0  0
   -4.8344   -0.4624   -1.3947 H   0  0  0  0  0  0  0  0  0  0  0  0
   -3.9396   -2.4461    0.7543 H   0  0  0  0  0  0  0  0  0  0  0  0
   -5.0223   -2.8423   -0.5931 H   0  0  0  0  0  0  0  0  0  0  0  0
   -3.3572   -2.3467   -0.9183 H   0  0  0  0  0  0  0  0  0  0  0  0
  1  2  1  0  0  0  0
  2  3  1  0  0  0  0
  3  4  2  0  0  0  0
  4  5  2  0  0  0  0
  4  6  2  0  0  0  0
  6  7  1  0  0  0  0
  7  8  1  0  0  0  0
  4  9  1  0  0  0  0
  9 10  1  0  0  0  0
 10 11  1  0  0  0  0
 11 12  1  0  0  0  0
 12 13  2  0  0  0  0
 12 14  2  0  0  0  0
 14 15  1  0  0  0  0
 15 16  1  0  0  0  0
 12 17  2  0  0  0  0
 17 18  1  0  0  0  0
 18 19  1  0  0  0  0
  1 20  1  0  0  0  0
  1 21  1  0  0  0  0
  1 22  1  0  0  0  0
  2 23  1  0  0  0  0
  2 24  1  0  0  0  0
  7 25  1  0  0  0  0
  7 26  1  0  0  0  0
  8 27  1  0  0  0  0
  8 28  1  0  0  0  0
  8 29  1  0  0  0  0
 10 30  1  0  0  0  0
 10 31  1  0  0  0  0
 15 32  1  0  0  0  0
 15 33  1  0  0  0  0
 16 34  1  0  0  0  0
 16 35  1  0  0  0  0
 16 36  1  0  0  0  0
 18 37  1  0  0  0  0
 18 38  1  0  0  0  0
 19 39  1  0  0  0  0
 19 40  1  0  0  0  0
 19 41  1  0  0  0  0
M  END
