 xtb: 6.7.1 (edcfbbe)
          04092505213D

 41 40  0     0  0            999 V2000
    3.4668   -2.2067    1.6907 C   0  0  0  0  0  0  0  0  0  0  0  0
    2.0754   -2.1290    1.0967 C   0  0  0  0  0  0  0  0  0  0  0  0
    1.6796   -0.7614    0.8735 O   0  0  0  0  0  0  0  0  0  0  0  0
    2.3168    0.1086   -0.3100 P   0  0  0  0  0  0  0  0  0  0  0  0
    2.9534   -0.9006   -1.8550 S   0  0  0  0  0  0  0  0  0  0  0  0
    3.4619    0.9914    0.3335 O   0  0  0  0  0  0  0  0  0  0  0  0
    3.2555    1.7764    1.5359 C   0  0  0  0  0  0  0  0  0  0  0  0
    4.6182    2.1260    2.0968 C   0  0  0  0  0  0  0  0  0  0  0  0
    0.7364    1.4830   -0.6382 S   0  0  0  0  0  0  0  0  0  0  0  0
   -0.1897    0.4189   -1.7754 C   0  0  0  0  0  0  0  0  0  0  0  0
   -0.9760   -0.9849   -0.9551 S   0  0  0  0  0  0  0  0  0  0  0  0
   -2.6026    0.1352   -0.1378 P   0  0  0  0  0  0  0  0  0  0  0  0
   -3.4506    1.4032   -1.3590 S   0  0  0  0  0  0  0  0  0  0  0  0
   -2.0252    0.8585    1.1356 O   0  0  0  0  0  0  0  0  0  0  0  0
   -1.3897    0.1662    2.2402 C   0  0  0  0  0  0  0  0  0  0  0  0
   -0.6447    1.2031    3.0543 C   0  0  0  0  0  0  0  0  0  0  0  0
   -3.5397   -0.9767    0.5043 O   0  0  0  0  0  0  0  0  0  0  0  0
   -4.5793   -1.6449   -0.2350 C   0  0  0  0  0  0  0  0  0  0  0  0
   -4.0321   -2.4812   -1.3730 C   0  0  0  0  0  0  0  0  0  0  0  0
    4.1867   -1.7827    0.9906 H   0  0  0  0  0  0  0  0  0  0  0  0
    3.5135   -1.6551    2.6261 H   0  0  0  0  0  0  0  0  0  0  0  0
    3.7239   -3.2454    1.8730 H   0  0  0  0  0  0  0  0  0  0  0  0
    1.3183   -2.5216    1.7768 H   0  0  0  0  0  0  0  0  0  0  0  0
    2.0295   -2.6647    0.1436 H   0  0  0  0  0  0  0  0  0  0  0  0
    2.6937    2.6718    1.2575 H   0  0  0  0  0  0  0  0  0  0  0  0
    2.6694    1.1853    2.2438 H   0  0  0  0  0  0  0  0  0  0  0  0
    4.4911    2.7352    2.9858 H   0  0  0  0  0  0  0  0  0  0  0  0
    5.1630    1.2220    2.3536 H   0  0  0  0  0  0  0  0  0  0  0  0
    5.1918    2.6803    1.3597 H   0  0  0  0  0  0  0  0  0  0  0  0
    0.4947    0.0126   -2.5206 H   0  0  0  0  0  0  0  0  0  0  0  0
   -0.9586    1.0403   -2.2366 H   0  0  0  0  0  0  0  0  0  0  0  0
   -2.1703   -0.3269    2.8222 H   0  0  0  0  0  0  0  0  0  0  0  0
   -0.7094   -0.5873    1.8329 H   0  0  0  0  0  0  0  0  0  0  0  0
    0.1025    1.6918    2.4339 H   0  0  0  0  0  0  0  0  0  0  0  0
   -1.3365    1.9561    3.4203 H   0  0  0  0  0  0  0  0  0  0  0  0
   -0.1599    0.7179    3.8951 H   0  0  0  0  0  0  0  0  0  0  0  0
   -5.0745   -2.2611    0.5169 H   0  0  0  0  0  0  0  0  0  0  0  0
   -5.2726   -0.8878   -0.6132 H   0  0  0  0  0  0  0  0  0  0  0  0
   -3.2587   -3.1548   -1.0124 H   0  0  0  0  0  0  0  0  0  0  0  0
   -4.8385   -3.0594   -1.8125 H   0  0  0  0  0  0  0  0  0  0  0  0
   -3.6056   -1.8346   -2.1386 H   0  0  0  0  0  0  0  0  0  0  0  0
  1  2  1  0  0  0  0
  2  3  1  0  0  0  0
  3  4  1  0  0  0  0
  4  5  2  0  0  0  0
  4  6  2  0  0  0  0
  6  7  1  0  0  0  0
  7  8  1  0  0  0  0
  4  9  1  0  0  0  0
  9 10  1  0  0  0  0
 10 11  1  0  0  0  0
 11 12  1  0  0  0  0
 12 13  2  0  0  0  0
 12 14  2  0  0  0  0
 14 15  1  0  0  0  0
 15 16  1  0  0  0  0
 12 17  2  0  0  0  0
 17 18  1  0  0  0  0
 18 19  1  0  0  0  0
  1 20  1  0  0  0  0
  1 21  1  0  0  0  0
  1 22  1  0  0  0  0
  2 23  1  0  0  0  0
  2 24  1  0  0  0  0
  7 25  1  0  0  0  0
  7 26  1  0  0  0  0
  8 27  1  0  0  0  0
  8 28  1  0  0  0  0
  8 29  1  0  0  0  0
 10 30  1  0  0  0  0
 10 31  1  0  0  0  0
 15 32  1  0  0  0  0
 15 33  1  0  0  0  0
 16 34  1  0  0  0  0
 16 35  1  0  0  0  0
 16 36  1  0  0  0  0
 18 37  1  0  0  0  0
 18 38  1  0  0  0  0
 19 39  1  0  0  0  0
 19 40  1  0  0  0  0
 19 41  1  0  0  0  0
M  END
