 xtb: 6.7.1 (edcfbbe)
          04092505203D

 41 40  0     0  0            999 V2000
    1.2437   -0.3810   -3.4492 C   0  0  0  0  0  0  0  0  0  0  0  0
    1.8421   -0.9638   -2.1868 C   0  0  0  0  0  0  0  0  0  0  0  0
    1.9544    0.1063   -1.2147 O   0  0  0  0  0  0  0  0  0  0  0  0
    2.1962   -0.1573    0.3189 P   0  0  0  0  0  0  0  0  0  0  0  0
    2.4643    1.5133    1.2985 S   0  0  0  0  0  0  0  0  0  0  0  0
    3.4224   -1.1712    0.2348 O   0  0  0  0  0  0  0  0  0  0  0  0
    3.8984   -2.0159    1.2995 C   0  0  0  0  0  0  0  0  0  0  0  0
    4.2845   -1.2410    2.5418 C   0  0  0  0  0  0  0  0  0  0  0  0
    0.6440   -1.4250    1.0409 S   0  0  0  0  0  0  0  0  0  0  0  0
   -0.3246   -0.2351    2.0208 C   0  0  0  0  0  0  0  0  0  0  0  0
   -2.0695   -0.2206    1.5716 S   0  0  0  0  0  0  0  0  0  0  0  0
   -1.8444    0.5791   -0.3912 P   0  0  0  0  0  0  0  0  0  0  0  0
   -0.5934    2.0753   -0.5794 S   0  0  0  0  0  0  0  0  0  0  0  0
   -3.3490    0.7891   -0.8522 O   0  0  0  0  0  0  0  0  0  0  0  0
   -4.3632    1.4669   -0.0874 C   0  0  0  0  0  0  0  0  0  0  0  0
   -3.9525    2.8653    0.3222 C   0  0  0  0  0  0  0  0  0  0  0  0
   -1.3842   -0.6141   -1.3140 O   0  0  0  0  0  0  0  0  0  0  0  0
   -2.1284   -1.8533   -1.4428 C   0  0  0  0  0  0  0  0  0  0  0  0
   -2.8994   -1.8691   -2.7461 C   0  0  0  0  0  0  0  0  0  0  0  0
    0.2624    0.0352   -3.2344 H   0  0  0  0  0  0  0  0  0  0  0  0
    1.8790    0.4142   -3.8289 H   0  0  0  0  0  0  0  0  0  0  0  0
    1.1531   -1.1629   -4.1964 H   0  0  0  0  0  0  0  0  0  0  0  0
    2.8432   -1.3634   -2.3599 H   0  0  0  0  0  0  0  0  0  0  0  0
    1.2048   -1.7473   -1.7657 H   0  0  0  0  0  0  0  0  0  0  0  0
    3.1205   -2.7503    1.5261 H   0  0  0  0  0  0  0  0  0  0  0  0
    4.7627   -2.5154    0.8580 H   0  0  0  0  0  0  0  0  0  0  0  0
    4.7151   -1.9211    3.2697 H   0  0  0  0  0  0  0  0  0  0  0  0
    5.0087   -0.4678    2.2968 H   0  0  0  0  0  0  0  0  0  0  0  0
    3.4093   -0.7602    2.9757 H   0  0  0  0  0  0  0  0  0  0  0  0
    0.1110    0.7593    1.8817 H   0  0  0  0  0  0  0  0  0  0  0  0
   -0.2842   -0.5391    3.0638 H   0  0  0  0  0  0  0  0  0  0  0  0
   -5.2226    1.4856   -0.7598 H   0  0  0  0  0  0  0  0  0  0  0  0
   -4.5905    0.8578    0.7918 H   0  0  0  0  0  0  0  0  0  0  0  0
   -3.6679    3.4489   -0.5502 H   0  0  0  0  0  0  0  0  0  0  0  0
   -4.7801    3.3525    0.8276 H   0  0  0  0  0  0  0  0  0  0  0  0
   -3.0986    2.8245    0.9975 H   0  0  0  0  0  0  0  0  0  0  0  0
   -1.3718   -2.6400   -1.4131 H   0  0  0  0  0  0  0  0  0  0  0  0
   -2.7965   -1.9589   -0.5837 H   0  0  0  0  0  0  0  0  0  0  0  0
   -3.6239   -1.0591   -2.7621 H   0  0  0  0  0  0  0  0  0  0  0  0
   -2.2203   -1.7469   -3.5852 H   0  0  0  0  0  0  0  0  0  0  0  0
   -3.4183   -2.8179   -2.8394 H   0  0  0  0  0  0  0  0  0  0  0  0
  1  2  1  0  0  0  0
  2  3  1  0  0  0  0
  3  4  2  0  0  0  0
  4  5  2  0  0  0  0
  4  6  2  0  0  0  0
  6  7  1  0  0  0  0
  7  8  1  0  0  0  0
  4  9  1  0  0  0  0
  9 10  1  0  0  0  0
 10 11  1  0  0  0  0
 11 12  1  0  0  0  0
 12 13  2  0  0  0  0
 12 14  2  0  0  0  0
 14 15  1  0  0  0  0
 15 16  1  0  0  0  0
 12 17  2  0  0  0  0
 17 18  1  0  0  0  0
 18 19  1  0  0  0  0
  1 20  1  0  0  0  0
  1 21  1  0  0  0  0
  1 22  1  0  0  0  0
  2 23  1  0  0  0  0
  2 24  1  0  0  0  0
  7 25  1  0  0  0  0
  7 26  1  0  0  0  0
  8 27  1  0  0  0  0
  8 28  1  0  0  0  0
  8 29  1  0  0  0  0
 10 30  1  0  0  0  0
 10 31  1  0  0  0  0
 15 32  1  0  0  0  0
 15 33  1  0  0  0  0
 16 34  1  0  0  0  0
 16 35  1  0  0  0  0
 16 36  1  0  0  0  0
 18 37  1  0  0  0  0
 18 38  1  0  0  0  0
 19 39  1  0  0  0  0
 19 40  1  0  0  0  0
 19 41  1  0  0  0  0
M  END
