 xtb: 6.7.1 (edcfbbe)
          04092505213D

 41 40  0     0  0            999 V2000
    4.0668   -0.0416   -2.4369 C   0  0  0  0  0  0  0  0  0  0  0  0
    4.2928    0.8005   -1.1980 C   0  0  0  0  0  0  0  0  0  0  0  0
    3.7498    0.1870   -0.0167 O   0  0  0  0  0  0  0  0  0  0  0  0
    2.1918   -0.0552    0.1873 P   0  0  0  0  0  0  0  0  0  0  0  0
    1.0712    1.4551   -0.4061 S   0  0  0  0  0  0  0  0  0  0  0  0
    2.1028   -0.3970    1.7289 O   0  0  0  0  0  0  0  0  0  0  0  0
    2.0776    0.6131    2.7590 C   0  0  0  0  0  0  0  0  0  0  0  0
    3.4787    1.0160    3.1715 C   0  0  0  0  0  0  0  0  0  0  0  0
    1.8744   -1.9886   -0.5814 S   0  0  0  0  0  0  0  0  0  0  0  0
    0.0886   -1.9286   -0.8924 C   0  0  0  0  0  0  0  0  0  0  0  0
   -0.8695   -1.3743    0.5507 S   0  0  0  0  0  0  0  0  0  0  0  0
   -2.1375    0.0225   -0.4164 P   0  0  0  0  0  0  0  0  0  0  0  0
   -1.8446    0.4211   -2.3074 S   0  0  0  0  0  0  0  0  0  0  0  0
   -2.1425    1.3378    0.4693 O   0  0  0  0  0  0  0  0  0  0  0  0
   -1.8933    1.4076    1.8880 C   0  0  0  0  0  0  0  0  0  0  0  0
   -2.8842    0.5969    2.6963 C   0  0  0  0  0  0  0  0  0  0  0  0
   -3.5223   -0.7335   -0.1437 O   0  0  0  0  0  0  0  0  0  0  0  0
   -4.6829   -0.5248   -0.9646 C   0  0  0  0  0  0  0  0  0  0  0  0
   -5.3073    0.8328   -0.7118 C   0  0  0  0  0  0  0  0  0  0  0  0
    4.4223   -1.0561   -2.2752 H   0  0  0  0  0  0  0  0  0  0  0  0
    3.0037   -0.0756   -2.6748 H   0  0  0  0  0  0  0  0  0  0  0  0
    4.5976    0.3998   -3.2744 H   0  0  0  0  0  0  0  0  0  0  0  0
    3.8335    1.7873   -1.3162 H   0  0  0  0  0  0  0  0  0  0  0  0
    5.3546    0.9080   -0.9723 H   0  0  0  0  0  0  0  0  0  0  0  0
    1.5152    1.4781    2.3892 H   0  0  0  0  0  0  0  0  0  0  0  0
    1.5375    0.1422    3.5824 H   0  0  0  0  0  0  0  0  0  0  0  0
    4.0470    0.1364    3.4602 H   0  0  0  0  0  0  0  0  0  0  0  0
    3.9888    1.5072    2.3460 H   0  0  0  0  0  0  0  0  0  0  0  0
    3.4195    1.7005    4.0120 H   0  0  0  0  0  0  0  0  0  0  0  0
   -0.1981   -2.9482   -1.1381 H   0  0  0  0  0  0  0  0  0  0  0  0
   -0.1228   -1.2508   -1.7253 H   0  0  0  0  0  0  0  0  0  0  0  0
   -0.8701    1.0667    2.0708 H   0  0  0  0  0  0  0  0  0  0  0  0
   -1.9650    2.4750    2.1034 H   0  0  0  0  0  0  0  0  0  0  0  0
   -2.8006   -0.4589    2.4421 H   0  0  0  0  0  0  0  0  0  0  0  0
   -2.6694    0.7260    3.7524 H   0  0  0  0  0  0  0  0  0  0  0  0
   -3.8984    0.9302    2.4930 H   0  0  0  0  0  0  0  0  0  0  0  0
   -4.3895   -0.6217   -2.0149 H   0  0  0  0  0  0  0  0  0  0  0  0
   -5.3538   -1.3396   -0.6891 H   0  0  0  0  0  0  0  0  0  0  0  0
   -6.1868    0.9492   -1.3371 H   0  0  0  0  0  0  0  0  0  0  0  0
   -5.5918    0.9318    0.3324 H   0  0  0  0  0  0  0  0  0  0  0  0
   -4.5898    1.6159   -0.9583 H   0  0  0  0  0  0  0  0  0  0  0  0
  1  2  1  0  0  0  0
  2  3  1  0  0  0  0
  3  4  2  0  0  0  0
  4  5  2  0  0  0  0
  4  6  2  0  0  0  0
  6  7  1  0  0  0  0
  7  8  1  0  0  0  0
  4  9  1  0  0  0  0
  9 10  1  0  0  0  0
 10 11  1  0  0  0  0
 11 12  1  0  0  0  0
 12 13  2  0  0  0  0
 12 14  2  0  0  0  0
 14 15  1  0  0  0  0
 15 16  1  0  0  0  0
 12 17  1  0  0  0  0
 17 18  1  0  0  0  0
 18 19  1  0  0  0  0
  1 20  1  0  0  0  0
  1 21  1  0  0  0  0
  1 22  1  0  0  0  0
  2 23  1  0  0  0  0
  2 24  1  0  0  0  0
  7 25  1  0  0  0  0
  7 26  1  0  0  0  0
  8 27  1  0  0  0  0
  8 28  1  0  0  0  0
  8 29  1  0  0  0  0
 10 30  1  0  0  0  0
 10 31  1  0  0  0  0
 15 32  1  0  0  0  0
 15 33  1  0  0  0  0
 16 34  1  0  0  0  0
 16 35  1  0  0  0  0
 16 36  1  0  0  0  0
 18 37  1  0  0  0  0
 18 38  1  0  0  0  0
 19 39  1  0  0  0  0
 19 40  1  0  0  0  0
 19 41  1  0  0  0  0
M  END
