 xtb: 6.7.1 (edcfbbe)
          04092505203D

 41 40  0     0  0            999 V2000
    4.4489   -0.4147   -2.4011 C   0  0  0  0  0  0  0  0  0  0  0  0
    3.0800   -1.0612   -2.3990 C   0  0  0  0  0  0  0  0  0  0  0  0
    2.5924   -1.2699   -1.0562 O   0  0  0  0  0  0  0  0  0  0  0  0
    2.1349   -0.0713   -0.1299 P   0  0  0  0  0  0  0  0  0  0  0  0
    1.3810    1.4764   -1.0783 S   0  0  0  0  0  0  0  0  0  0  0  0
    3.4573    0.2851    0.6802 O   0  0  0  0  0  0  0  0  0  0  0  0
    3.5946    1.5017    1.4297 C   0  0  0  0  0  0  0  0  0  0  0  0
    2.6983    1.5157    2.6515 C   0  0  0  0  0  0  0  0  0  0  0  0
    1.0538   -1.2052    1.2922 S   0  0  0  0  0  0  0  0  0  0  0  0
   -0.0756   -2.1153    0.1916 C   0  0  0  0  0  0  0  0  0  0  0  0
   -0.9938   -1.0798   -0.9788 S   0  0  0  0  0  0  0  0  0  0  0  0
   -2.0983    0.1181    0.4120 P   0  0  0  0  0  0  0  0  0  0  0  0
   -1.1927    1.4280    1.5448 S   0  0  0  0  0  0  0  0  0  0  0  0
   -2.8565   -0.9524    1.2856 O   0  0  0  0  0  0  0  0  0  0  0  0
   -3.7694   -1.9454    0.7511 C   0  0  0  0  0  0  0  0  0  0  0  0
   -5.2002   -1.4531    0.8216 C   0  0  0  0  0  0  0  0  0  0  0  0
   -3.2406    0.7247   -0.5118 O   0  0  0  0  0  0  0  0  0  0  0  0
   -3.0916    1.9568   -1.2368 C   0  0  0  0  0  0  0  0  0  0  0  0
   -2.2407    1.7818   -2.4780 C   0  0  0  0  0  0  0  0  0  0  0  0
    5.1361   -0.9877   -1.7842 H   0  0  0  0  0  0  0  0  0  0  0  0
    4.8247   -0.3690   -3.4184 H   0  0  0  0  0  0  0  0  0  0  0  0
    4.3798    0.5969   -2.0032 H   0  0  0  0  0  0  0  0  0  0  0  0
    3.1038   -2.0639   -2.8272 H   0  0  0  0  0  0  0  0  0  0  0  0
    2.3569   -0.4399   -2.9371 H   0  0  0  0  0  0  0  0  0  0  0  0
    4.6503    1.5256    1.7031 H   0  0  0  0  0  0  0  0  0  0  0  0
    3.3584    2.3455    0.7723 H   0  0  0  0  0  0  0  0  0  0  0  0
    1.6496    1.5413    2.3501 H   0  0  0  0  0  0  0  0  0  0  0  0
    2.8647    0.6257    3.2537 H   0  0  0  0  0  0  0  0  0  0  0  0
    2.9072    2.3992    3.2459 H   0  0  0  0  0  0  0  0  0  0  0  0
   -0.7645   -2.6372    0.8527 H   0  0  0  0  0  0  0  0  0  0  0  0
    0.4954   -2.8158   -0.4137 H   0  0  0  0  0  0  0  0  0  0  0  0
   -3.4825   -2.1775   -0.2780 H   0  0  0  0  0  0  0  0  0  0  0  0
   -3.6222   -2.8193    1.3887 H   0  0  0  0  0  0  0  0  0  0  0  0
   -5.3343   -0.5882    0.1779 H   0  0  0  0  0  0  0  0  0  0  0  0
   -5.8649   -2.2481    0.4980 H   0  0  0  0  0  0  0  0  0  0  0  0
   -5.4465   -1.1716    1.8418 H   0  0  0  0  0  0  0  0  0  0  0  0
   -4.1152    2.2380   -1.4894 H   0  0  0  0  0  0  0  0  0  0  0  0
   -2.6545    2.7058   -0.5683 H   0  0  0  0  0  0  0  0  0  0  0  0
   -2.2796    2.6904   -3.0700 H   0  0  0  0  0  0  0  0  0  0  0  0
   -1.2031    1.5949   -2.2035 H   0  0  0  0  0  0  0  0  0  0  0  0
   -2.6047    0.9470   -3.0712 H   0  0  0  0  0  0  0  0  0  0  0  0
  1  2  1  0  0  0  0
  2  3  1  0  0  0  0
  3  4  2  0  0  0  0
  4  5  2  0  0  0  0
  4  6  2  0  0  0  0
  6  7  1  0  0  0  0
  7  8  1  0  0  0  0
  4  9  1  0  0  0  0
  9 10  1  0  0  0  0
 10 11  1  0  0  0  0
 11 12  1  0  0  0  0
 12 13  2  0  0  0  0
 12 14  2  0  0  0  0
 14 15  1  0  0  0  0
 15 16  1  0  0  0  0
 12 17  2  0  0  0  0
 17 18  1  0  0  0  0
 18 19  1  0  0  0  0
  1 20  1  0  0  0  0
  1 21  1  0  0  0  0
  1 22  1  0  0  0  0
  2 23  1  0  0  0  0
  2 24  1  0  0  0  0
  7 25  1  0  0  0  0
  7 26  1  0  0  0  0
  8 27  1  0  0  0  0
  8 28  1  0  0  0  0
  8 29  1  0  0  0  0
 10 30  1  0  0  0  0
 10 31  1  0  0  0  0
 15 32  1  0  0  0  0
 15 33  1  0  0  0  0
 16 34  1  0  0  0  0
 16 35  1  0  0  0  0
 16 36  1  0  0  0  0
 18 37  1  0  0  0  0
 18 38  1  0  0  0  0
 19 39  1  0  0  0  0
 19 40  1  0  0  0  0
 19 41  1  0  0  0  0
M  END
