 xtb: 6.7.1 (edcfbbe)
          04092505213D

 41 40  0     0  0            999 V2000
    2.6357   -3.3203   -0.6152 C   0  0  0  0  0  0  0  0  0  0  0  0
    3.3780   -2.3021   -1.4551 C   0  0  0  0  0  0  0  0  0  0  0  0
    3.6246   -1.0663   -0.7435 O   0  0  0  0  0  0  0  0  0  0  0  0
    2.5185   -0.0706   -0.1968 P   0  0  0  0  0  0  0  0  0  0  0  0
    3.3201    1.6739    0.1717 S   0  0  0  0  0  0  0  0  0  0  0  0
    1.8215   -0.7732    1.0621 O   0  0  0  0  0  0  0  0  0  0  0  0
    2.2590   -0.5524    2.4197 C   0  0  0  0  0  0  0  0  0  0  0  0
    1.3305    0.4104    3.1322 C   0  0  0  0  0  0  0  0  0  0  0  0
    0.9618   -0.1773   -1.6196 S   0  0  0  0  0  0  0  0  0  0  0  0
    0.2240    1.4309   -1.2334 C   0  0  0  0  0  0  0  0  0  0  0  0
   -0.6290    1.4547    0.3556 S   0  0  0  0  0  0  0  0  0  0  0  0
   -2.4479    0.4879   -0.2515 P   0  0  0  0  0  0  0  0  0  0  0  0
   -2.7509    0.3504   -2.1782 S   0  0  0  0  0  0  0  0  0  0  0  0
   -3.5890    1.3388    0.4157 O   0  0  0  0  0  0  0  0  0  0  0  0
   -3.6246    1.6846    1.8233 C   0  0  0  0  0  0  0  0  0  0  0  0
   -4.4937    0.7146    2.5971 C   0  0  0  0  0  0  0  0  0  0  0  0
   -2.4871   -0.8453    0.6202 O   0  0  0  0  0  0  0  0  0  0  0  0
   -1.5158   -1.9044    0.5784 C   0  0  0  0  0  0  0  0  0  0  0  0
   -1.6080   -2.7227   -0.6943 C   0  0  0  0  0  0  0  0  0  0  0  0
    2.5525   -4.2456   -1.1766 H   0  0  0  0  0  0  0  0  0  0  0  0
    3.1731   -3.5102    0.3103 H   0  0  0  0  0  0  0  0  0  0  0  0
    1.6378   -2.9567   -0.3805 H   0  0  0  0  0  0  0  0  0  0  0  0
    2.8204   -2.0677   -2.3656 H   0  0  0  0  0  0  0  0  0  0  0  0
    4.3809   -2.6453   -1.7143 H   0  0  0  0  0  0  0  0  0  0  0  0
    2.2418   -1.5401    2.8836 H   0  0  0  0  0  0  0  0  0  0  0  0
    3.2826   -0.1669    2.4100 H   0  0  0  0  0  0  0  0  0  0  0  0
    0.3082    0.0449    3.0960 H   0  0  0  0  0  0  0  0  0  0  0  0
    1.6432    0.5071    4.1667 H   0  0  0  0  0  0  0  0  0  0  0  0
    1.3678    1.3878    2.6556 H   0  0  0  0  0  0  0  0  0  0  0  0
   -0.4870    1.6414   -2.0329 H   0  0  0  0  0  0  0  0  0  0  0  0
    1.0105    2.1836   -1.1795 H   0  0  0  0  0  0  0  0  0  0  0  0
   -2.6016    1.7035    2.2093 H   0  0  0  0  0  0  0  0  0  0  0  0
   -4.0409    2.6933    1.8433 H   0  0  0  0  0  0  0  0  0  0  0  0
   -5.4938    0.6941    2.1730 H   0  0  0  0  0  0  0  0  0  0  0  0
   -4.0760   -0.2872    2.5532 H   0  0  0  0  0  0  0  0  0  0  0  0
   -4.5496    1.0369    3.6321 H   0  0  0  0  0  0  0  0  0  0  0  0
   -0.5164   -1.4748    0.6988 H   0  0  0  0  0  0  0  0  0  0  0  0
   -1.7588   -2.5107    1.4535 H   0  0  0  0  0  0  0  0  0  0  0  0
   -1.3008   -2.1316   -1.5549 H   0  0  0  0  0  0  0  0  0  0  0  0
   -0.9608   -3.5902   -0.6118 H   0  0  0  0  0  0  0  0  0  0  0  0
   -2.6314   -3.0540   -0.8504 H   0  0  0  0  0  0  0  0  0  0  0  0
  1  2  1  0  0  0  0
  2  3  1  0  0  0  0
  3  4  2  0  0  0  0
  4  5  2  0  0  0  0
  4  6  1  0  0  0  0
  6  7  1  0  0  0  0
  7  8  1  0  0  0  0
  4  9  1  0  0  0  0
  9 10  1  0  0  0  0
 10 11  1  0  0  0  0
 11 12  1  0  0  0  0
 12 13  2  0  0  0  0
 12 14  2  0  0  0  0
 14 15  1  0  0  0  0
 15 16  1  0  0  0  0
 12 17  2  0  0  0  0
 17 18  1  0  0  0  0
 18 19  1  0  0  0  0
  1 20  1  0  0  0  0
  1 21  1  0  0  0  0
  1 22  1  0  0  0  0
  2 23  1  0  0  0  0
  2 24  1  0  0  0  0
  7 25  1  0  0  0  0
  7 26  1  0  0  0  0
  8 27  1  0  0  0  0
  8 28  1  0  0  0  0
  8 29  1  0  0  0  0
 10 30  1  0  0  0  0
 10 31  1  0  0  0  0
 15 32  1  0  0  0  0
 15 33  1  0  0  0  0
 16 34  1  0  0  0  0
 16 35  1  0  0  0  0
 16 36  1  0  0  0  0
 18 37  1  0  0  0  0
 18 38  1  0  0  0  0
 19 39  1  0  0  0  0
 19 40  1  0  0  0  0
 19 41  1  0  0  0  0
M  END
