 xtb: 6.7.1 (edcfbbe)
          04032520443D

 10  9  0     0  0            999 V2000
    1.4813    0.3500   -0.4892 C   0  0  0  0  0  0  0  0  0  0  0  0
    0.8351   -0.2482    0.4927 C   0  0  0  0  0  0  0  0  0  0  0  0
   -0.6567   -0.3695    0.5837 C   0  0  0  0  0  0  0  0  0  0  0  0
   -1.2907    0.2440   -0.5186 O   0  0  0  0  0  0  0  0  0  0  0  0
    2.5550    0.4113   -0.5093 H   0  0  0  0  0  0  0  0  0  0  0  0
    0.9460    0.7994   -1.3078 H   0  0  0  0  0  0  0  0  0  0  0  0
    1.3592   -0.7039    1.3214 H   0  0  0  0  0  0  0  0  0  0  0  0
   -0.9862    0.0972    1.5249 H   0  0  0  0  0  0  0  0  0  0  0  0
   -0.9163   -1.4386    0.6294 H   0  0  0  0  0  0  0  0  0  0  0  0
   -2.2474    0.1507   -0.4242 H   0  0  0  0  0  0  0  0  0  0  0  0
  1  2  2  0  0  0  0
  2  3  1  0  0  0  0
  3  4  1  0  0  0  0
  1  5  1  0  0  0  0
  1  6  1  0  0  0  0
  2  7  1  0  0  0  0
  3  8  1  0  0  0  0
  3  9  1  0  0  0  0
  4 10  1  0  0  0  0
M  END
