 xtb: 6.7.1 (edcfbbe)
          04092507313D

 38 37  0     0  0            999 V2000
    5.1780   -1.3405   -2.2819 C   0  0  0  0  0  0  0  0  0  0  0  0
    4.2037   -0.2862   -1.7806 C   0  0  0  0  0  0  0  0  0  0  0  0
    2.8979   -0.8523   -1.5618 O   0  0  0  0  0  0  0  0  0  0  0  0
    2.6441   -1.4139   -0.3980 C   0  0  0  0  0  0  0  0  0  0  0  0
    3.4326   -1.5031    0.5155 O   0  0  0  0  0  0  0  0  0  0  0  0
    1.2154   -1.9294   -0.3366 C   0  0  0  0  0  0  0  0  0  0  0  0
    0.2483   -0.7467   -0.4243 C   0  0  0  0  0  0  0  0  0  0  0  0
    0.3810   -0.2151   -1.3695 H   0  0  0  0  0  0  0  0  0  0  0  0
    0.4997    0.2029    0.7326 C   0  0  0  0  0  0  0  0  0  0  0  0
   -0.2133    0.2572    1.7127 O   0  0  0  0  0  0  0  0  0  0  0  0
    1.5893    0.9017    0.5411 O   0  0  0  0  0  0  0  0  0  0  0  0
    2.0078    1.8075    1.5841 C   0  0  0  0  0  0  0  0  0  0  0  0
    2.6784    1.0608    2.7256 C   0  0  0  0  0  0  0  0  0  0  0  0
   -1.4706   -1.3410   -0.3059 S   0  0  0  0  0  0  0  0  0  0  0  0
   -2.4053    0.5365    0.0105 P   0  0  0  0  0  0  0  0  0  0  0  0
   -1.4349    2.1041   -0.6483 S   0  0  0  0  0  0  0  0  0  0  0  0
   -3.8181    0.3034   -0.7100 O   0  0  0  0  0  0  0  0  0  0  0  0
   -3.9157    0.1667   -2.1323 C   0  0  0  0  0  0  0  0  0  0  0  0
   -2.8966    0.6887    1.5007 O   0  0  0  0  0  0  0  0  0  0  0  0
   -3.5310   -0.3831    2.2268 C   0  0  0  0  0  0  0  0  0  0  0  0
    4.7929   -1.8071   -3.1842 H   0  0  0  0  0  0  0  0  0  0  0  0
    6.1316   -0.8715   -2.5005 H   0  0  0  0  0  0  0  0  0  0  0  0
    5.3261   -2.1042   -1.5219 H   0  0  0  0  0  0  0  0  0  0  0  0
    4.0410    0.4935   -2.5248 H   0  0  0  0  0  0  0  0  0  0  0  0
    4.5541    0.1518   -0.8420 H   0  0  0  0  0  0  0  0  0  0  0  0
    1.0723   -2.4685    0.6005 H   0  0  0  0  0  0  0  0  0  0  0  0
    1.0337   -2.5977   -1.1785 H   0  0  0  0  0  0  0  0  0  0  0  0
    2.6991    2.4827    1.0804 H   0  0  0  0  0  0  0  0  0  0  0  0
    1.1282    2.3568    1.9328 H   0  0  0  0  0  0  0  0  0  0  0  0
    3.1244    1.7758    3.4085 H   0  0  0  0  0  0  0  0  0  0  0  0
    1.9478    0.4624    3.2649 H   0  0  0  0  0  0  0  0  0  0  0  0
    3.4496    0.3997    2.3363 H   0  0  0  0  0  0  0  0  0  0  0  0
   -3.5147   -0.7988   -2.4396 H   0  0  0  0  0  0  0  0  0  0  0  0
   -3.3693    0.9732   -2.6237 H   0  0  0  0  0  0  0  0  0  0  0  0
   -4.9765    0.2333   -2.3594 H   0  0  0  0  0  0  0  0  0  0  0  0
   -2.7949   -1.1568    2.4440 H   0  0  0  0  0  0  0  0  0  0  0  0
   -4.3572   -0.7920    1.6481 H   0  0  0  0  0  0  0  0  0  0  0  0
   -3.8874    0.0731    3.1465 H   0  0  0  0  0  0  0  0  0  0  0  0
  1  2  1  0  0  0  0
  2  3  1  0  0  0  0
  3  4  1  0  0  0  0
  4  5  2  0  0  0  0
  4  6  1  0  0  0  0
  6  7  1  0  0  0  0
  7  8  1  0  0  0  0
  7  9  1  0  0  0  0
  9 10  2  0  0  0  0
  9 11  4  0  0  0  0
 11 12  1  0  0  0  0
 12 13  1  0  0  0  0
  7 14  1  0  0  0  0
 14 15  1  0  0  0  0
 15 16  2  0  0  0  0
 15 17  1  0  0  0  0
 17 18  1  0  0  0  0
 15 19  2  0  0  0  0
 19 20  1  0  0  0  0
  1 21  1  0  0  0  0
  1 22  1  0  0  0  0
  1 23  1  0  0  0  0
  2 24  1  0  0  0  0
  2 25  1  0  0  0  0
  6 26  1  0  0  0  0
  6 27  1  0  0  0  0
 12 28  1  0  0  0  0
 12 29  1  0  0  0  0
 13 30  1  0  0  0  0
 13 31  1  0  0  0  0
 13 32  1  0  0  0  0
 18 33  1  0  0  0  0
 18 34  1  0  0  0  0
 18 35  1  0  0  0  0
 20 36  1  0  0  0  0
 20 37  1  0  0  0  0
 20 38  1  0  0  0  0
M  END
