 xtb: 6.7.1 (edcfbbe)
          04092505213D

 41 40  0     0  0            999 V2000
    5.2732    0.0969    1.2025 C   0  0  0  0  0  0  0  0  0  0  0  0
    4.3990    0.8704    0.2354 C   0  0  0  0  0  0  0  0  0  0  0  0
    3.5604   -0.0001   -0.5483 O   0  0  0  0  0  0  0  0  0  0  0  0
    2.1831   -0.6086   -0.0393 P   0  0  0  0  0  0  0  0  0  0  0  0
    2.2489   -1.8804    1.4505 S   0  0  0  0  0  0  0  0  0  0  0  0
    1.6391   -1.3060   -1.3429 O   0  0  0  0  0  0  0  0  0  0  0  0
    1.9385   -0.9145   -2.7067 C   0  0  0  0  0  0  0  0  0  0  0  0
    1.5374    0.5106   -3.0209 C   0  0  0  0  0  0  0  0  0  0  0  0
    0.9941    1.1221    0.3454 S   0  0  0  0  0  0  0  0  0  0  0  0
    0.0489    0.4927    1.7525 C   0  0  0  0  0  0  0  0  0  0  0  0
   -1.1204   -0.8281    1.3297 S   0  0  0  0  0  0  0  0  0  0  0  0
   -2.4337    0.2568    0.0503 P   0  0  0  0  0  0  0  0  0  0  0  0
   -1.9731    0.4884   -1.8421 S   0  0  0  0  0  0  0  0  0  0  0  0
   -2.6779    1.6079    0.8351 O   0  0  0  0  0  0  0  0  0  0  0  0
   -2.6520    2.9231    0.2389 C   0  0  0  0  0  0  0  0  0  0  0  0
   -1.5276    3.7513    0.8280 C   0  0  0  0  0  0  0  0  0  0  0  0
   -3.8276   -0.4624    0.3116 O   0  0  0  0  0  0  0  0  0  0  0  0
   -4.0366   -1.8836    0.3433 C   0  0  0  0  0  0  0  0  0  0  0  0
   -3.4617   -2.5905   -0.8675 C   0  0  0  0  0  0  0  0  0  0  0  0
    4.6623   -0.4269    1.9340 H   0  0  0  0  0  0  0  0  0  0  0  0
    5.8704   -0.6349    0.6652 H   0  0  0  0  0  0  0  0  0  0  0  0
    5.9317    0.7882    1.7184 H   0  0  0  0  0  0  0  0  0  0  0  0
    5.0027    1.3922   -0.5100 H   0  0  0  0  0  0  0  0  0  0  0  0
    3.7674    1.5905    0.7636 H   0  0  0  0  0  0  0  0  0  0  0  0
    3.0076   -1.0660   -2.8683 H   0  0  0  0  0  0  0  0  0  0  0  0
    1.3647   -1.6281   -3.2999 H   0  0  0  0  0  0  0  0  0  0  0  0
    1.7507    0.7120   -4.0659 H   0  0  0  0  0  0  0  0  0  0  0  0
    0.4740    0.6570   -2.8458 H   0  0  0  0  0  0  0  0  0  0  0  0
    2.0961    1.2116   -2.4040 H   0  0  0  0  0  0  0  0  0  0  0  0
   -0.4889    1.3356    2.1789 H   0  0  0  0  0  0  0  0  0  0  0  0
    0.7304    0.0423    2.4748 H   0  0  0  0  0  0  0  0  0  0  0  0
   -2.5375    2.8192   -0.8455 H   0  0  0  0  0  0  0  0  0  0  0  0
   -3.6267    3.3600    0.4628 H   0  0  0  0  0  0  0  0  0  0  0  0
   -1.5878    4.7572    0.4253 H   0  0  0  0  0  0  0  0  0  0  0  0
   -1.6192    3.7958    1.9098 H   0  0  0  0  0  0  0  0  0  0  0  0
   -0.5612    3.3246    0.5644 H   0  0  0  0  0  0  0  0  0  0  0  0
   -3.5926   -2.2743    1.2639 H   0  0  0  0  0  0  0  0  0  0  0  0
   -5.1227   -1.9840    0.3855 H   0  0  0  0  0  0  0  0  0  0  0  0
   -3.7205   -3.6439   -0.8286 H   0  0  0  0  0  0  0  0  0  0  0  0
   -3.8552   -2.1552   -1.7835 H   0  0  0  0  0  0  0  0  0  0  0  0
   -2.3753   -2.4949   -0.8763 H   0  0  0  0  0  0  0  0  0  0  0  0
  1  2  1  0  0  0  0
  2  3  1  0  0  0  0
  3  4  2  0  0  0  0
  4  5  2  0  0  0  0
  4  6  2  0  0  0  0
  6  7  1  0  0  0  0
  7  8  1  0  0  0  0
  4  9  1  0  0  0  0
  9 10  1  0  0  0  0
 10 11  1  0  0  0  0
 11 12  1  0  0  0  0
 12 13  2  0  0  0  0
 12 14  2  0  0  0  0
 14 15  1  0  0  0  0
 15 16  1  0  0  0  0
 12 17  2  0  0  0  0
 17 18  1  0  0  0  0
 18 19  1  0  0  0  0
  1 20  1  0  0  0  0
  1 21  1  0  0  0  0
  1 22  1  0  0  0  0
  2 23  1  0  0  0  0
  2 24  1  0  0  0  0
  7 25  1  0  0  0  0
  7 26  1  0  0  0  0
  8 27  1  0  0  0  0
  8 28  1  0  0  0  0
  8 29  1  0  0  0  0
 10 30  1  0  0  0  0
 10 31  1  0  0  0  0
 15 32  1  0  0  0  0
 15 33  1  0  0  0  0
 16 34  1  0  0  0  0
 16 35  1  0  0  0  0
 16 36  1  0  0  0  0
 18 37  1  0  0  0  0
 18 38  1  0  0  0  0
 19 39  1  0  0  0  0
 19 40  1  0  0  0  0
 19 41  1  0  0  0  0
M  END
