 xtb: 6.7.1 (edcfbbe)
          04092505213D

 41 40  0     0  0            999 V2000
    5.1799   -1.1995   -1.9399 C   0  0  0  0  0  0  0  0  0  0  0  0
    4.9458   -0.3355   -0.7166 C   0  0  0  0  0  0  0  0  0  0  0  0
    3.6904   -0.6863   -0.0891 O   0  0  0  0  0  0  0  0  0  0  0  0
    2.3782    0.1697   -0.3147 P   0  0  0  0  0  0  0  0  0  0  0  0
    1.9740    0.6553   -2.1755 S   0  0  0  0  0  0  0  0  0  0  0  0
    2.6783    1.4073    0.6407 O   0  0  0  0  0  0  0  0  0  0  0  0
    1.8760    2.5985    0.7090 C   0  0  0  0  0  0  0  0  0  0  0  0
    0.9766    2.5666    1.9286 C   0  0  0  0  0  0  0  0  0  0  0  0
    1.0426   -1.0883    0.7090 S   0  0  0  0  0  0  0  0  0  0  0  0
    0.0727   -1.6978   -0.7208 C   0  0  0  0  0  0  0  0  0  0  0  0
   -1.6453   -1.9863   -0.2799 S   0  0  0  0  0  0  0  0  0  0  0  0
   -2.1515    0.0192    0.2593 P   0  0  0  0  0  0  0  0  0  0  0  0
   -1.3092    1.4498   -0.7779 S   0  0  0  0  0  0  0  0  0  0  0  0
   -1.7747    0.1909    1.7797 O   0  0  0  0  0  0  0  0  0  0  0  0
   -2.2517   -0.6887    2.8283 C   0  0  0  0  0  0  0  0  0  0  0  0
   -3.3982   -0.0420    3.5781 C   0  0  0  0  0  0  0  0  0  0  0  0
   -3.7375   -0.0339    0.3150 O   0  0  0  0  0  0  0  0  0  0  0  0
   -4.5901   -0.5567   -0.7215 C   0  0  0  0  0  0  0  0  0  0  0  0
   -4.3123    0.0588   -2.0765 C   0  0  0  0  0  0  0  0  0  0  0  0
    5.1425   -2.2498   -1.6655 H   0  0  0  0  0  0  0  0  0  0  0  0
    4.4147   -1.0027   -2.6878 H   0  0  0  0  0  0  0  0  0  0  0  0
    6.1539   -0.9700   -2.3600 H   0  0  0  0  0  0  0  0  0  0  0  0
    4.9345    0.7256   -0.9797 H   0  0  0  0  0  0  0  0  0  0  0  0
    5.6996   -0.5143    0.0518 H   0  0  0  0  0  0  0  0  0  0  0  0
    2.5952    3.4177    0.7703 H   0  0  0  0  0  0  0  0  0  0  0  0
    1.2908    2.6963   -0.2119 H   0  0  0  0  0  0  0  0  0  0  0  0
    0.4702    3.5222    2.0193 H   0  0  0  0  0  0  0  0  0  0  0  0
    0.2263    1.7844    1.8286 H   0  0  0  0  0  0  0  0  0  0  0  0
    1.5671    2.3793    2.8210 H   0  0  0  0  0  0  0  0  0  0  0  0
    0.4713   -2.6558   -1.0453 H   0  0  0  0  0  0  0  0  0  0  0  0
    0.1333   -0.9505   -1.5178 H   0  0  0  0  0  0  0  0  0  0  0  0
   -2.5528   -1.6416    2.3845 H   0  0  0  0  0  0  0  0  0  0  0  0
   -1.3849   -0.8437    3.4735 H   0  0  0  0  0  0  0  0  0  0  0  0
   -3.0836    0.9137    3.9877 H   0  0  0  0  0  0  0  0  0  0  0  0
   -4.2382    0.1243    2.9090 H   0  0  0  0  0  0  0  0  0  0  0  0
   -3.7067   -0.6959    4.3877 H   0  0  0  0  0  0  0  0  0  0  0  0
   -4.4573   -1.6414   -0.7551 H   0  0  0  0  0  0  0  0  0  0  0  0
   -5.5958   -0.3142   -0.3738 H   0  0  0  0  0  0  0  0  0  0  0  0
   -4.3791    1.1431   -2.0231 H   0  0  0  0  0  0  0  0  0  0  0  0
   -3.3102   -0.2056   -2.4123 H   0  0  0  0  0  0  0  0  0  0  0  0
   -5.0344   -0.3111   -2.7972 H   0  0  0  0  0  0  0  0  0  0  0  0
  1  2  1  0  0  0  0
  2  3  1  0  0  0  0
  3  4  2  0  0  0  0
  4  5  2  0  0  0  0
  4  6  2  0  0  0  0
  6  7  1  0  0  0  0
  7  8  1  0  0  0  0
  4  9  1  0  0  0  0
  9 10  1  0  0  0  0
 10 11  1  0  0  0  0
 11 12  1  0  0  0  0
 12 13  2  0  0  0  0
 12 14  2  0  0  0  0
 14 15  1  0  0  0  0
 15 16  1  0  0  0  0
 12 17  2  0  0  0  0
 17 18  1  0  0  0  0
 18 19  1  0  0  0  0
  1 20  1  0  0  0  0
  1 21  1  0  0  0  0
  1 22  1  0  0  0  0
  2 23  1  0  0  0  0
  2 24  1  0  0  0  0
  7 25  1  0  0  0  0
  7 26  1  0  0  0  0
  8 27  1  0  0  0  0
  8 28  1  0  0  0  0
  8 29  1  0  0  0  0
 10 30  1  0  0  0  0
 10 31  1  0  0  0  0
 15 32  1  0  0  0  0
 15 33  1  0  0  0  0
 16 34  1  0  0  0  0
 16 35  1  0  0  0  0
 16 36  1  0  0  0  0
 18 37  1  0  0  0  0
 18 38  1  0  0  0  0
 19 39  1  0  0  0  0
 19 40  1  0  0  0  0
 19 41  1  0  0  0  0
M  END
