 xtb: 6.7.1 (edcfbbe)
          04092505203D

 41 40  0     0  0            999 V2000
    4.5059   -1.4645   -0.9195 C   0  0  0  0  0  0  0  0  0  0  0  0
    4.6454   -0.0090   -0.5237 C   0  0  0  0  0  0  0  0  0  0  0  0
    3.5297    0.4651    0.2516 O   0  0  0  0  0  0  0  0  0  0  0  0
    2.0571    0.5872   -0.3446 P   0  0  0  0  0  0  0  0  0  0  0  0
    1.9748    1.1880   -2.2019 S   0  0  0  0  0  0  0  0  0  0  0  0
    1.3842    1.5840    0.6758 O   0  0  0  0  0  0  0  0  0  0  0  0
    1.4245    1.4017    2.1123 C   0  0  0  0  0  0  0  0  0  0  0  0
    2.5418    2.2145    2.7325 C   0  0  0  0  0  0  0  0  0  0  0  0
    1.2365   -1.3322    0.0751 S   0  0  0  0  0  0  0  0  0  0  0  0
    0.1381   -1.5432   -1.3611 C   0  0  0  0  0  0  0  0  0  0  0  0
   -1.5695   -1.8774   -0.8874 S   0  0  0  0  0  0  0  0  0  0  0  0
   -1.9845   -0.0132    0.0511 P   0  0  0  0  0  0  0  0  0  0  0  0
   -1.4179    1.5407   -1.0044 S   0  0  0  0  0  0  0  0  0  0  0  0
   -1.3571    0.0048    1.4953 O   0  0  0  0  0  0  0  0  0  0  0  0
   -1.8531   -0.7218    2.6531 C   0  0  0  0  0  0  0  0  0  0  0  0
   -1.6973   -2.2212    2.5117 C   0  0  0  0  0  0  0  0  0  0  0  0
   -3.5375   -0.1141    0.3555 O   0  0  0  0  0  0  0  0  0  0  0  0
   -4.5084   -0.0728   -0.7113 C   0  0  0  0  0  0  0  0  0  0  0  0
   -5.8667    0.1840   -0.0914 C   0  0  0  0  0  0  0  0  0  0  0  0
    3.6991   -1.5765   -1.6422 H   0  0  0  0  0  0  0  0  0  0  0  0
    5.4323   -1.7983   -1.3756 H   0  0  0  0  0  0  0  0  0  0  0  0
    4.2896   -2.0773   -0.0481 H   0  0  0  0  0  0  0  0  0  0  0  0
    4.7364    0.6226   -1.4126 H   0  0  0  0  0  0  0  0  0  0  0  0
    5.5016    0.1485    0.1338 H   0  0  0  0  0  0  0  0  0  0  0  0
    0.4447    1.7444    2.4514 H   0  0  0  0  0  0  0  0  0  0  0  0
    1.5386    0.3354    2.3287 H   0  0  0  0  0  0  0  0  0  0  0  0
    3.5073    1.8550    2.3876 H   0  0  0  0  0  0  0  0  0  0  0  0
    2.4368    3.2600    2.4554 H   0  0  0  0  0  0  0  0  0  0  0  0
    2.4876    2.1217    3.8128 H   0  0  0  0  0  0  0  0  0  0  0  0
    0.4705   -2.4138   -1.9208 H   0  0  0  0  0  0  0  0  0  0  0  0
    0.1889   -0.6372   -1.9719 H   0  0  0  0  0  0  0  0  0  0  0  0
   -1.2389   -0.3320    3.4665 H   0  0  0  0  0  0  0  0  0  0  0  0
   -2.8968   -0.4445    2.8062 H   0  0  0  0  0  0  0  0  0  0  0  0
   -2.3732   -2.6082    1.7529 H   0  0  0  0  0  0  0  0  0  0  0  0
   -0.6760   -2.4716    2.2327 H   0  0  0  0  0  0  0  0  0  0  0  0
   -1.9314   -2.6878    3.4635 H   0  0  0  0  0  0  0  0  0  0  0  0
   -4.2248    0.7223   -1.4086 H   0  0  0  0  0  0  0  0  0  0  0  0
   -4.4805   -1.0329   -1.2330 H   0  0  0  0  0  0  0  0  0  0  0  0
   -6.1092   -0.6060    0.6131 H   0  0  0  0  0  0  0  0  0  0  0  0
   -5.8653    1.1366    0.4309 H   0  0  0  0  0  0  0  0  0  0  0  0
   -6.6156    0.2080   -0.8760 H   0  0  0  0  0  0  0  0  0  0  0  0
  1  2  1  0  0  0  0
  2  3  1  0  0  0  0
  3  4  2  0  0  0  0
  4  5  2  0  0  0  0
  4  6  2  0  0  0  0
  6  7  1  0  0  0  0
  7  8  1  0  0  0  0
  4  9  1  0  0  0  0
  9 10  1  0  0  0  0
 10 11  1  0  0  0  0
 11 12  1  0  0  0  0
 12 13  2  0  0  0  0
 12 14  2  0  0  0  0
 14 15  1  0  0  0  0
 15 16  1  0  0  0  0
 12 17  2  0  0  0  0
 17 18  1  0  0  0  0
 18 19  1  0  0  0  0
  1 20  1  0  0  0  0
  1 21  1  0  0  0  0
  1 22  1  0  0  0  0
  2 23  1  0  0  0  0
  2 24  1  0  0  0  0
  7 25  1  0  0  0  0
  7 26  1  0  0  0  0
  8 27  1  0  0  0  0
  8 28  1  0  0  0  0
  8 29  1  0  0  0  0
 10 30  1  0  0  0  0
 10 31  1  0  0  0  0
 15 32  1  0  0  0  0
 15 33  1  0  0  0  0
 16 34  1  0  0  0  0
 16 35  1  0  0  0  0
 16 36  1  0  0  0  0
 18 37  1  0  0  0  0
 18 38  1  0  0  0  0
 19 39  1  0  0  0  0
 19 40  1  0  0  0  0
 19 41  1  0  0  0  0
M  END
