 xtb: 6.7.1 (edcfbbe)
          04092507313D

 38 37  0     0  0            999 V2000
    2.5285   -2.7943    0.7020 C   0  0  0  0  0  0  0  0  0  0  0  0
    3.2664   -1.8449   -0.2261 C   0  0  0  0  0  0  0  0  0  0  0  0
    2.3193   -0.9295   -0.8118 O   0  0  0  0  0  0  0  0  0  0  0  0
    2.2035   -0.8664   -2.1255 C   0  0  0  0  0  0  0  0  0  0  0  0
    2.8998   -1.4777   -2.9053 O   0  0  0  0  0  0  0  0  0  0  0  0
    1.0973    0.0722   -2.5621 C   0  0  0  0  0  0  0  0  0  0  0  0
    0.2153    0.5355   -1.4118 C   0  0  0  0  0  0  0  0  0  0  0  0
   -0.5517    1.2259   -1.7838 H   0  0  0  0  0  0  0  0  0  0  0  0
    1.0254    1.2974   -0.3770 C   0  0  0  0  0  0  0  0  0  0  0  0
    1.9043    2.0700   -0.6814 O   0  0  0  0  0  0  0  0  0  0  0  0
    0.6165    1.0626    0.8517 O   0  0  0  0  0  0  0  0  0  0  0  0
    1.2533    1.7669    1.9362 C   0  0  0  0  0  0  0  0  0  0  0  0
    2.4809    1.0171    2.4228 C   0  0  0  0  0  0  0  0  0  0  0  0
   -0.6639   -0.8758   -0.6608 S   0  0  0  0  0  0  0  0  0  0  0  0
   -2.0075    0.2193    0.5724 P   0  0  0  0  0  0  0  0  0  0  0  0
   -2.3500    2.0824    0.0712 S   0  0  0  0  0  0  0  0  0  0  0  0
   -3.3121   -0.7128    0.5370 O   0  0  0  0  0  0  0  0  0  0  0  0
   -4.1021   -0.8390   -0.6493 C   0  0  0  0  0  0  0  0  0  0  0  0
   -1.5921    0.0387    2.0852 O   0  0  0  0  0  0  0  0  0  0  0  0
   -1.3545   -1.2629    2.6571 C   0  0  0  0  0  0  0  0  0  0  0  0
    2.0084   -2.2313    1.4716 H   0  0  0  0  0  0  0  0  0  0  0  0
    1.8013   -3.3760    0.1417 H   0  0  0  0  0  0  0  0  0  0  0  0
    3.2423   -3.4647    1.1687 H   0  0  0  0  0  0  0  0  0  0  0  0
    3.7734   -2.3797   -1.0340 H   0  0  0  0  0  0  0  0  0  0  0  0
    3.9899   -1.2355    0.3207 H   0  0  0  0  0  0  0  0  0  0  0  0
    0.5091   -0.4331   -3.3288 H   0  0  0  0  0  0  0  0  0  0  0  0
    1.5722    0.9458   -3.0168 H   0  0  0  0  0  0  0  0  0  0  0  0
    1.5178    2.7679    1.5839 H   0  0  0  0  0  0  0  0  0  0  0  0
    0.4823    1.8300    2.7053 H   0  0  0  0  0  0  0  0  0  0  0  0
    2.2117    0.0111    2.7317 H   0  0  0  0  0  0  0  0  0  0  0  0
    3.2191    0.9621    1.6262 H   0  0  0  0  0  0  0  0  0  0  0  0
    2.9100    1.5481    3.2660 H   0  0  0  0  0  0  0  0  0  0  0  0
   -3.5606   -1.4203   -1.3955 H   0  0  0  0  0  0  0  0  0  0  0  0
   -4.3424    0.1482   -1.0474 H   0  0  0  0  0  0  0  0  0  0  0  0
   -5.0087   -1.3555   -0.3448 H   0  0  0  0  0  0  0  0  0  0  0  0
   -0.6655   -1.8263    2.0274 H   0  0  0  0  0  0  0  0  0  0  0  0
   -2.2951   -1.8018    2.7515 H   0  0  0  0  0  0  0  0  0  0  0  0
   -0.9192   -1.0716    3.6345 H   0  0  0  0  0  0  0  0  0  0  0  0
  1  2  1  0  0  0  0
  2  3  1  0  0  0  0
  3  4  1  0  0  0  0
  4  5  2  0  0  0  0
  4  6  1  0  0  0  0
  6  7  1  0  0  0  0
  7  8  1  0  0  0  0
  7  9  1  0  0  0  0
  9 10  2  0  0  0  0
  9 11  1  0  0  0  0
 11 12  1  0  0  0  0
 12 13  1  0  0  0  0
  7 14  1  0  0  0  0
 14 15  1  0  0  0  0
 15 16  2  0  0  0  0
 15 17  1  0  0  0  0
 17 18  1  0  0  0  0
 15 19  2  0  0  0  0
 19 20  1  0  0  0  0
  1 21  1  0  0  0  0
  1 22  1  0  0  0  0
  1 23  1  0  0  0  0
  2 24  1  0  0  0  0
  2 25  1  0  0  0  0
  6 26  1  0  0  0  0
  6 27  1  0  0  0  0
 12 28  1  0  0  0  0
 12 29  1  0  0  0  0
 13 30  1  0  0  0  0
 13 31  1  0  0  0  0
 13 32  1  0  0  0  0
 18 33  1  0  0  0  0
 18 34  1  0  0  0  0
 18 35  1  0  0  0  0
 20 36  1  0  0  0  0
 20 37  1  0  0  0  0
 20 38  1  0  0  0  0
M  END
