 xtb: 6.7.1 (edcfbbe)
          04092507313D

 38 37  0     0  0            999 V2000
    3.9121   -3.7342    0.5520 C   0  0  0  0  0  0  0  0  0  0  0  0
    2.8830   -2.6646    0.8582 C   0  0  0  0  0  0  0  0  0  0  0  0
    2.8750   -1.7300   -0.2415 O   0  0  0  0  0  0  0  0  0  0  0  0
    1.8706   -0.9022   -0.3508 C   0  0  0  0  0  0  0  0  0  0  0  0
    0.9450   -0.8557    0.4465 O   0  0  0  0  0  0  0  0  0  0  0  0
    1.9606   -0.0158   -1.5640 C   0  0  0  0  0  0  0  0  0  0  0  0
    0.7859    0.9458   -1.6118 C   0  0  0  0  0  0  0  0  0  0  0  0
    0.8010    1.5373   -2.5307 H   0  0  0  0  0  0  0  0  0  0  0  0
    0.7395    1.8974   -0.4268 C   0  0  0  0  0  0  0  0  0  0  0  0
    1.5823    1.9197    0.4427 O   0  0  0  0  0  0  0  0  0  0  0  0
   -0.3017    2.6949   -0.5027 O   0  0  0  0  0  0  0  0  0  0  0  0
   -0.4888    3.6914    0.5195 C   0  0  0  0  0  0  0  0  0  0  0  0
    0.1986    4.9903    0.1305 C   0  0  0  0  0  0  0  0  0  0  0  0
   -0.8220    0.0710   -1.7481 S   0  0  0  0  0  0  0  0  0  0  0  0
   -1.4467   -0.5305    0.2019 P   0  0  0  0  0  0  0  0  0  0  0  0
   -1.4087   -2.4260    0.7337 S   0  0  0  0  0  0  0  0  0  0  0  0
   -1.0979    0.5952    1.2713 O   0  0  0  0  0  0  0  0  0  0  0  0
   -0.4391    0.3390    2.5119 C   0  0  0  0  0  0  0  0  0  0  0  0
   -2.9880   -0.0727    0.0573 O   0  0  0  0  0  0  0  0  0  0  0  0
   -3.8800   -0.7468   -0.8289 C   0  0  0  0  0  0  0  0  0  0  0  0
    3.9494   -4.4384    1.3763 H   0  0  0  0  0  0  0  0  0  0  0  0
    3.6423   -4.2633   -0.3569 H   0  0  0  0  0  0  0  0  0  0  0  0
    4.8898   -3.2811    0.4202 H   0  0  0  0  0  0  0  0  0  0  0  0
    3.1322   -2.1120    1.7690 H   0  0  0  0  0  0  0  0  0  0  0  0
    1.8763   -3.0809    0.9689 H   0  0  0  0  0  0  0  0  0  0  0  0
    1.9736   -0.6419   -2.4574 H   0  0  0  0  0  0  0  0  0  0  0  0
    2.9014    0.5359   -1.5119 H   0  0  0  0  0  0  0  0  0  0  0  0
   -1.5703    3.8119    0.5872 H   0  0  0  0  0  0  0  0  0  0  0  0
   -0.0939    3.3037    1.4623 H   0  0  0  0  0  0  0  0  0  0  0  0
   -0.1638    5.3294   -0.8357 H   0  0  0  0  0  0  0  0  0  0  0  0
   -0.0173    5.7450    0.8794 H   0  0  0  0  0  0  0  0  0  0  0  0
    1.2749    4.8434    0.0767 H   0  0  0  0  0  0  0  0  0  0  0  0
   -1.0106    0.8586    3.2783 H   0  0  0  0  0  0  0  0  0  0  0  0
    0.5792    0.7256    2.4536 H   0  0  0  0  0  0  0  0  0  0  0  0
   -0.4134   -0.7326    2.7168 H   0  0  0  0  0  0  0  0  0  0  0  0
   -4.8696   -0.3595   -0.6003 H   0  0  0  0  0  0  0  0  0  0  0  0
   -3.8413   -1.8238   -0.6510 H   0  0  0  0  0  0  0  0  0  0  0  0
   -3.6138   -0.5345   -1.8656 H   0  0  0  0  0  0  0  0  0  0  0  0
  1  2  1  0  0  0  0
  2  3  1  0  0  0  0
  3  4  4  0  0  0  0
  4  5  2  0  0  0  0
  4  6  1  0  0  0  0
  6  7  1  0  0  0  0
  7  8  1  0  0  0  0
  7  9  1  0  0  0  0
  9 10  2  0  0  0  0
  9 11  1  0  0  0  0
 11 12  1  0  0  0  0
 12 13  1  0  0  0  0
  7 14  1  0  0  0  0
 14 15  1  0  0  0  0
 15 16  2  0  0  0  0
 15 17  1  0  0  0  0
 17 18  1  0  0  0  0
 15 19  1  0  0  0  0
 19 20  1  0  0  0  0
  1 21  1  0  0  0  0
  1 22  1  0  0  0  0
  1 23  1  0  0  0  0
  2 24  1  0  0  0  0
  2 25  1  0  0  0  0
  6 26  1  0  0  0  0
  6 27  1  0  0  0  0
 12 28  1  0  0  0  0
 12 29  1  0  0  0  0
 13 30  1  0  0  0  0
 13 31  1  0  0  0  0
 13 32  1  0  0  0  0
 18 33  1  0  0  0  0
 18 34  1  0  0  0  0
 18 35  1  0  0  0  0
 20 36  1  0  0  0  0
 20 37  1  0  0  0  0
 20 38  1  0  0  0  0
M  END
