 xtb: 6.7.1 (edcfbbe)
          04092505203D

 41 40  0     0  0            999 V2000
    4.6103   -1.6933   -0.6460 C   0  0  0  0  0  0  0  0  0  0  0  0
    4.6425   -0.2101   -0.3395 C   0  0  0  0  0  0  0  0  0  0  0  0
    3.5010    0.2070    0.4287 O   0  0  0  0  0  0  0  0  0  0  0  0
    2.0364    0.2804   -0.1898 P   0  0  0  0  0  0  0  0  0  0  0  0
    2.0021    0.8361   -2.0753 S   0  0  0  0  0  0  0  0  0  0  0  0
    1.2924    1.1250    0.9243 O   0  0  0  0  0  0  0  0  0  0  0  0
    1.7367    2.3936    1.4470 C   0  0  0  0  0  0  0  0  0  0  0  0
    1.9150    3.4387    0.3659 C   0  0  0  0  0  0  0  0  0  0  0  0
    1.1965   -1.6107    0.1986 S   0  0  0  0  0  0  0  0  0  0  0  0
   -0.0296   -1.7232   -1.1496 C   0  0  0  0  0  0  0  0  0  0  0  0
   -1.7233   -1.8823   -0.5459 S   0  0  0  0  0  0  0  0  0  0  0  0
   -1.9787    0.0778    0.2395 P   0  0  0  0  0  0  0  0  0  0  0  0
   -1.3163    1.5567   -0.8591 S   0  0  0  0  0  0  0  0  0  0  0  0
   -1.3351    0.0773    1.6787 O   0  0  0  0  0  0  0  0  0  0  0  0
   -1.3595   -1.0040    2.6447 C   0  0  0  0  0  0  0  0  0  0  0  0
   -2.7589   -1.4784    2.9688 C   0  0  0  0  0  0  0  0  0  0  0  0
   -3.5352    0.1575    0.5526 O   0  0  0  0  0  0  0  0  0  0  0  0
   -4.5025    0.5914   -0.4176 C   0  0  0  0  0  0  0  0  0  0  0  0
   -4.6492   -0.3877   -1.5646 C   0  0  0  0  0  0  0  0  0  0  0  0
    4.4622   -2.2651    0.2664 H   0  0  0  0  0  0  0  0  0  0  0  0
    3.7959   -1.9119   -1.3350 H   0  0  0  0  0  0  0  0  0  0  0  0
    5.5486   -1.9836   -1.1075 H   0  0  0  0  0  0  0  0  0  0  0  0
    4.6669    0.3727   -1.2660 H   0  0  0  0  0  0  0  0  0  0  0  0
    5.4927    0.0543    0.2908 H   0  0  0  0  0  0  0  0  0  0  0  0
    0.9393    2.6716    2.1391 H   0  0  0  0  0  0  0  0  0  0  0  0
    2.6686    2.2273    1.9928 H   0  0  0  0  0  0  0  0  0  0  0  0
    1.0025    3.5273   -0.2218 H   0  0  0  0  0  0  0  0  0  0  0  0
    2.1439    4.3971    0.8209 H   0  0  0  0  0  0  0  0  0  0  0  0
    2.7278    3.1565   -0.3026 H   0  0  0  0  0  0  0  0  0  0  0  0
    0.1727   -2.6291   -1.7150 H   0  0  0  0  0  0  0  0  0  0  0  0
    0.0669   -0.8343   -1.7799 H   0  0  0  0  0  0  0  0  0  0  0  0
   -0.7476   -1.8237    2.2565 H   0  0  0  0  0  0  0  0  0  0  0  0
   -0.8693   -0.5646    3.5148 H   0  0  0  0  0  0  0  0  0  0  0  0
   -3.2102   -1.9485    2.0977 H   0  0  0  0  0  0  0  0  0  0  0  0
   -2.7043   -2.2045    3.7742 H   0  0  0  0  0  0  0  0  0  0  0  0
   -3.3793   -0.6416    3.2786 H   0  0  0  0  0  0  0  0  0  0  0  0
   -5.4250    0.6781    0.1582 H   0  0  0  0  0  0  0  0  0  0  0  0
   -4.2021    1.5762   -0.7896 H   0  0  0  0  0  0  0  0  0  0  0  0
   -4.8248   -1.3917   -1.1869 H   0  0  0  0  0  0  0  0  0  0  0  0
   -5.4843   -0.0849   -2.1881 H   0  0  0  0  0  0  0  0  0  0  0  0
   -3.7437   -0.3924   -2.1694 H   0  0  0  0  0  0  0  0  0  0  0  0
  1  2  1  0  0  0  0
  2  3  1  0  0  0  0
  3  4  2  0  0  0  0
  4  5  2  0  0  0  0
  4  6  2  0  0  0  0
  6  7  1  0  0  0  0
  7  8  1  0  0  0  0
  4  9  1  0  0  0  0
  9 10  1  0  0  0  0
 10 11  1  0  0  0  0
 11 12  1  0  0  0  0
 12 13  2  0  0  0  0
 12 14  2  0  0  0  0
 14 15  1  0  0  0  0
 15 16  1  0  0  0  0
 12 17  2  0  0  0  0
 17 18  1  0  0  0  0
 18 19  1  0  0  0  0
  1 20  1  0  0  0  0
  1 21  1  0  0  0  0
  1 22  1  0  0  0  0
  2 23  1  0  0  0  0
  2 24  1  0  0  0  0
  7 25  1  0  0  0  0
  7 26  1  0  0  0  0
  8 27  1  0  0  0  0
  8 28  1  0  0  0  0
  8 29  1  0  0  0  0
 10 30  1  0  0  0  0
 10 31  1  0  0  0  0
 15 32  1  0  0  0  0
 15 33  1  0  0  0  0
 16 34  1  0  0  0  0
 16 35  1  0  0  0  0
 16 36  1  0  0  0  0
 18 37  1  0  0  0  0
 18 38  1  0  0  0  0
 19 39  1  0  0  0  0
 19 40  1  0  0  0  0
 19 41  1  0  0  0  0
M  END
