 xtb: 6.7.1 (edcfbbe)
          04092505203D

 41 40  0     0  0            999 V2000
    3.8042   -1.2868   -2.7273 C   0  0  0  0  0  0  0  0  0  0  0  0
    4.3203   -0.4147   -1.6007 C   0  0  0  0  0  0  0  0  0  0  0  0
    3.5018   -0.5216   -0.4277 O   0  0  0  0  0  0  0  0  0  0  0  0
    2.0152    0.0609   -0.3818 P   0  0  0  0  0  0  0  0  0  0  0  0
    1.8708    1.7967   -1.2853 S   0  0  0  0  0  0  0  0  0  0  0  0
    1.7134    0.0254    1.1710 O   0  0  0  0  0  0  0  0  0  0  0  0
    2.0258    1.1555    2.0104 C   0  0  0  0  0  0  0  0  0  0  0  0
    3.5173    1.3588    2.1577 C   0  0  0  0  0  0  0  0  0  0  0  0
    0.8467   -1.5769   -1.0553 S   0  0  0  0  0  0  0  0  0  0  0  0
   -0.2201   -2.0919    0.3352 C   0  0  0  0  0  0  0  0  0  0  0  0
   -1.9748   -1.8123    0.0148 S   0  0  0  0  0  0  0  0  0  0  0  0
   -1.9957    0.2278    0.6136 P   0  0  0  0  0  0  0  0  0  0  0  0
   -1.2791    0.5305    2.4124 S   0  0  0  0  0  0  0  0  0  0  0  0
   -3.4746    0.7104    0.3161 O   0  0  0  0  0  0  0  0  0  0  0  0
   -4.6626   -0.0182    0.6860 C   0  0  0  0  0  0  0  0  0  0  0  0
   -4.7353   -0.3077    2.1700 C   0  0  0  0  0  0  0  0  0  0  0  0
   -1.1489    1.0593   -0.4308 O   0  0  0  0  0  0  0  0  0  0  0  0
   -1.6221    1.5212   -1.7231 C   0  0  0  0  0  0  0  0  0  0  0  0
   -1.9653    0.3886   -2.6670 C   0  0  0  0  0  0  0  0  0  0  0  0
    3.7256   -2.3209   -2.4026 H   0  0  0  0  0  0  0  0  0  0  0  0
    2.8158   -0.9424   -3.0346 H   0  0  0  0  0  0  0  0  0  0  0  0
    4.4801   -1.2223   -3.5738 H   0  0  0  0  0  0  0  0  0  0  0  0
    4.3465    0.6357   -1.9100 H   0  0  0  0  0  0  0  0  0  0  0  0
    5.3095   -0.7285   -1.2650 H   0  0  0  0  0  0  0  0  0  0  0  0
    1.5473    2.0433    1.5832 H   0  0  0  0  0  0  0  0  0  0  0  0
    1.5460    0.9141    2.9605 H   0  0  0  0  0  0  0  0  0  0  0  0
    3.6973    2.1356    2.8941 H   0  0  0  0  0  0  0  0  0  0  0  0
    3.9910    0.4351    2.4796 H   0  0  0  0  0  0  0  0  0  0  0  0
    3.9477    1.6660    1.2055 H   0  0  0  0  0  0  0  0  0  0  0  0
    0.0734   -1.5638    1.2416 H   0  0  0  0  0  0  0  0  0  0  0  0
   -0.0910   -3.1659    0.4372 H   0  0  0  0  0  0  0  0  0  0  0  0
   -5.4732    0.6389    0.3661 H   0  0  0  0  0  0  0  0  0  0  0  0
   -4.6852   -0.9477    0.1105 H   0  0  0  0  0  0  0  0  0  0  0  0
   -5.6839   -0.7832    2.3971 H   0  0  0  0  0  0  0  0  0  0  0  0
   -3.9250   -0.9734    2.4635 H   0  0  0  0  0  0  0  0  0  0  0  0
   -4.6471    0.6128    2.7423 H   0  0  0  0  0  0  0  0  0  0  0  0
   -2.4833    2.1684   -1.5507 H   0  0  0  0  0  0  0  0  0  0  0  0
   -0.7813    2.1112   -2.0941 H   0  0  0  0  0  0  0  0  0  0  0  0
   -1.1177   -0.2839   -2.7819 H   0  0  0  0  0  0  0  0  0  0  0  0
   -2.8189   -0.1762   -2.2979 H   0  0  0  0  0  0  0  0  0  0  0  0
   -2.2129    0.8106   -3.6360 H   0  0  0  0  0  0  0  0  0  0  0  0
  1  2  1  0  0  0  0
  2  3  1  0  0  0  0
  3  4  1  0  0  0  0
  4  5  2  0  0  0  0
  4  6  2  0  0  0  0
  6  7  1  0  0  0  0
  7  8  1  0  0  0  0
  4  9  1  0  0  0  0
  9 10  1  0  0  0  0
 10 11  1  0  0  0  0
 11 12  1  0  0  0  0
 12 13  2  0  0  0  0
 12 14  2  0  0  0  0
 14 15  1  0  0  0  0
 15 16  1  0  0  0  0
 12 17  2  0  0  0  0
 17 18  1  0  0  0  0
 18 19  1  0  0  0  0
  1 20  1  0  0  0  0
  1 21  1  0  0  0  0
  1 22  1  0  0  0  0
  2 23  1  0  0  0  0
  2 24  1  0  0  0  0
  7 25  1  0  0  0  0
  7 26  1  0  0  0  0
  8 27  1  0  0  0  0
  8 28  1  0  0  0  0
  8 29  1  0  0  0  0
 10 30  1  0  0  0  0
 10 31  1  0  0  0  0
 15 32  1  0  0  0  0
 15 33  1  0  0  0  0
 16 34  1  0  0  0  0
 16 35  1  0  0  0  0
 16 36  1  0  0  0  0
 18 37  1  0  0  0  0
 18 38  1  0  0  0  0
 19 39  1  0  0  0  0
 19 40  1  0  0  0  0
 19 41  1  0  0  0  0
M  END
