 xtb: 6.7.1 (edcfbbe)
          04092505213D

 41 40  0     0  0            999 V2000
    3.3768   -2.7054   -1.7338 C   0  0  0  0  0  0  0  0  0  0  0  0
    4.1296   -1.7639   -0.8149 C   0  0  0  0  0  0  0  0  0  0  0  0
    3.2413   -0.9547   -0.0259 O   0  0  0  0  0  0  0  0  0  0  0  0
    2.3658    0.2129   -0.6766 P   0  0  0  0  0  0  0  0  0  0  0  0
    3.2462    1.2121   -2.1113 S   0  0  0  0  0  0  0  0  0  0  0  0
    1.9436    1.0344    0.6106 O   0  0  0  0  0  0  0  0  0  0  0  0
    2.6839    2.1779    1.0759 C   0  0  0  0  0  0  0  0  0  0  0  0
    4.0246    1.7786    1.6545 C   0  0  0  0  0  0  0  0  0  0  0  0
    0.5150   -0.6709   -1.1381 S   0  0  0  0  0  0  0  0  0  0  0  0
    0.1461   -1.3978    0.5080 C   0  0  0  0  0  0  0  0  0  0  0  0
   -1.6129   -1.7434    0.6475 S   0  0  0  0  0  0  0  0  0  0  0  0
   -2.2893    0.2803    0.6069 P   0  0  0  0  0  0  0  0  0  0  0  0
   -1.1512    1.5641    1.5444 S   0  0  0  0  0  0  0  0  0  0  0  0
   -3.7695    0.1404    1.1694 O   0  0  0  0  0  0  0  0  0  0  0  0
   -4.0194   -0.1608    2.5586 C   0  0  0  0  0  0  0  0  0  0  0  0
   -5.4756    0.1451    2.8437 C   0  0  0  0  0  0  0  0  0  0  0  0
   -2.5500    0.6920   -0.8882 O   0  0  0  0  0  0  0  0  0  0  0  0
   -3.4294   -0.0368   -1.7875 C   0  0  0  0  0  0  0  0  0  0  0  0
   -2.6221   -0.8338   -2.7918 C   0  0  0  0  0  0  0  0  0  0  0  0
    2.6958   -3.3338   -1.1659 H   0  0  0  0  0  0  0  0  0  0  0  0
    2.8038   -2.1323   -2.4624 H   0  0  0  0  0  0  0  0  0  0  0  0
    4.0868   -3.3339   -2.2616 H   0  0  0  0  0  0  0  0  0  0  0  0
    4.7757   -1.0994   -1.3973 H   0  0  0  0  0  0  0  0  0  0  0  0
    4.7212   -2.3053   -0.0754 H   0  0  0  0  0  0  0  0  0  0  0  0
    2.8122    2.8716    0.2387 H   0  0  0  0  0  0  0  0  0  0  0  0
    2.0246    2.6222    1.8242 H   0  0  0  0  0  0  0  0  0  0  0  0
    4.5057    2.6540    2.0791 H   0  0  0  0  0  0  0  0  0  0  0  0
    3.8917    1.0267    2.4278 H   0  0  0  0  0  0  0  0  0  0  0  0
    4.6585    1.3715    0.8677 H   0  0  0  0  0  0  0  0  0  0  0  0
    0.4337   -0.6792    1.2748 H   0  0  0  0  0  0  0  0  0  0  0  0
    0.6679   -2.3446    0.6164 H   0  0  0  0  0  0  0  0  0  0  0  0
   -3.7914   -1.2171    2.7237 H   0  0  0  0  0  0  0  0  0  0  0  0
   -3.3518    0.4526    3.1724 H   0  0  0  0  0  0  0  0  0  0  0  0
   -5.6898   -0.0820    3.8828 H   0  0  0  0  0  0  0  0  0  0  0  0
   -5.6799    1.1956    2.6566 H   0  0  0  0  0  0  0  0  0  0  0  0
   -6.1144   -0.4570    2.2044 H   0  0  0  0  0  0  0  0  0  0  0  0
   -4.0858   -0.6807   -1.1997 H   0  0  0  0  0  0  0  0  0  0  0  0
   -4.0179    0.7398   -2.2782 H   0  0  0  0  0  0  0  0  0  0  0  0
   -1.9173   -0.1847   -3.3046 H   0  0  0  0  0  0  0  0  0  0  0  0
   -2.0615   -1.6245   -2.2992 H   0  0  0  0  0  0  0  0  0  0  0  0
   -3.2986   -1.2744   -3.5171 H   0  0  0  0  0  0  0  0  0  0  0  0
  1  2  1  0  0  0  0
  2  3  1  0  0  0  0
  3  4  2  0  0  0  0
  4  5  2  0  0  0  0
  4  6  2  0  0  0  0
  6  7  1  0  0  0  0
  7  8  1  0  0  0  0
  4  9  1  0  0  0  0
  9 10  1  0  0  0  0
 10 11  1  0  0  0  0
 11 12  1  0  0  0  0
 12 13  2  0  0  0  0
 12 14  2  0  0  0  0
 14 15  1  0  0  0  0
 15 16  1  0  0  0  0
 12 17  2  0  0  0  0
 17 18  1  0  0  0  0
 18 19  1  0  0  0  0
  1 20  1  0  0  0  0
  1 21  1  0  0  0  0
  1 22  1  0  0  0  0
  2 23  1  0  0  0  0
  2 24  1  0  0  0  0
  7 25  1  0  0  0  0
  7 26  1  0  0  0  0
  8 27  1  0  0  0  0
  8 28  1  0  0  0  0
  8 29  1  0  0  0  0
 10 30  1  0  0  0  0
 10 31  1  0  0  0  0
 15 32  1  0  0  0  0
 15 33  1  0  0  0  0
 16 34  1  0  0  0  0
 16 35  1  0  0  0  0
 16 36  1  0  0  0  0
 18 37  1  0  0  0  0
 18 38  1  0  0  0  0
 19 39  1  0  0  0  0
 19 40  1  0  0  0  0
 19 41  1  0  0  0  0
M  END
