 xtb: 6.7.1 (edcfbbe)
          04092507313D

 38 37  0     0  0            999 V2000
    5.7632   -1.5204   -0.6087 C   0  0  0  0  0  0  0  0  0  0  0  0
    4.7040   -2.5507   -0.9657 C   0  0  0  0  0  0  0  0  0  0  0  0
    3.5689   -2.4482   -0.0825 O   0  0  0  0  0  0  0  0  0  0  0  0
    2.6164   -1.5895   -0.3755 C   0  0  0  0  0  0  0  0  0  0  0  0
    2.5956   -0.8894   -1.3675 O   0  0  0  0  0  0  0  0  0  0  0  0
    1.5324   -1.5756    0.6824 C   0  0  0  0  0  0  0  0  0  0  0  0
    0.3474   -0.7930    0.1511 C   0  0  0  0  0  0  0  0  0  0  0  0
   -0.1432   -1.3029   -0.6838 H   0  0  0  0  0  0  0  0  0  0  0  0
    0.6987    0.6125   -0.2891 C   0  0  0  0  0  0  0  0  0  0  0  0
    0.0724    1.1881   -1.1557 O   0  0  0  0  0  0  0  0  0  0  0  0
    1.6531    1.1465    0.4345 O   0  0  0  0  0  0  0  0  0  0  0  0
    1.9559    2.5422    0.2392 C   0  0  0  0  0  0  0  0  0  0  0  0
    1.1235    3.3926    1.1858 C   0  0  0  0  0  0  0  0  0  0  0  0
   -0.9157   -0.5195    1.4509 S   0  0  0  0  0  0  0  0  0  0  0  0
   -2.4030    0.2789    0.2001 P   0  0  0  0  0  0  0  0  0  0  0  0
   -2.6565   -0.5393   -1.5671 S   0  0  0  0  0  0  0  0  0  0  0  0
   -3.7075    0.1858    1.1200 O   0  0  0  0  0  0  0  0  0  0  0  0
   -4.4099   -1.0503    1.2989 C   0  0  0  0  0  0  0  0  0  0  0  0
   -2.1536    1.8474    0.2916 O   0  0  0  0  0  0  0  0  0  0  0  0
   -2.6476    2.7384   -0.7218 C   0  0  0  0  0  0  0  0  0  0  0  0
    6.0539   -1.6282    0.4325 H   0  0  0  0  0  0  0  0  0  0  0  0
    6.6327   -1.6659   -1.2411 H   0  0  0  0  0  0  0  0  0  0  0  0
    5.3756   -0.5167   -0.7682 H   0  0  0  0  0  0  0  0  0  0  0  0
    5.0705   -3.5665   -0.8186 H   0  0  0  0  0  0  0  0  0  0  0  0
    4.3596   -2.4132   -1.9947 H   0  0  0  0  0  0  0  0  0  0  0  0
    1.9339   -1.0963    1.5773 H   0  0  0  0  0  0  0  0  0  0  0  0
    1.2492   -2.5958    0.9377 H   0  0  0  0  0  0  0  0  0  0  0  0
    3.0210    2.6276    0.4549 H   0  0  0  0  0  0  0  0  0  0  0  0
    1.7573    2.7984   -0.8050 H   0  0  0  0  0  0  0  0  0  0  0  0
    1.3351    3.1216    2.2164 H   0  0  0  0  0  0  0  0  0  0  0  0
    1.3597    4.4400    1.0315 H   0  0  0  0  0  0  0  0  0  0  0  0
    0.0640    3.2338    0.9935 H   0  0  0  0  0  0  0  0  0  0  0  0
   -3.8768   -1.6768    2.0128 H   0  0  0  0  0  0  0  0  0  0  0  0
   -4.5029   -1.5680    0.3424 H   0  0  0  0  0  0  0  0  0  0  0  0
   -5.3899   -0.7786    1.6825 H   0  0  0  0  0  0  0  0  0  0  0  0
   -3.7305    2.6570   -0.8022 H   0  0  0  0  0  0  0  0  0  0  0  0
   -2.1798    2.4971   -1.6771 H   0  0  0  0  0  0  0  0  0  0  0  0
   -2.3588    3.7344   -0.3963 H   0  0  0  0  0  0  0  0  0  0  0  0
  1  2  1  0  0  0  0
  2  3  1  0  0  0  0
  3  4  1  0  0  0  0
  4  5  2  0  0  0  0
  4  6  1  0  0  0  0
  6  7  1  0  0  0  0
  7  8  1  0  0  0  0
  7  9  1  0  0  0  0
  9 10  2  0  0  0  0
  9 11  4  0  0  0  0
 11 12  1  0  0  0  0
 12 13  1  0  0  0  0
  7 14  1  0  0  0  0
 14 15  1  0  0  0  0
 15 16  2  0  0  0  0
 15 17  1  0  0  0  0
 17 18  1  0  0  0  0
 15 19  1  0  0  0  0
 19 20  1  0  0  0  0
  1 21  1  0  0  0  0
  1 22  1  0  0  0  0
  1 23  1  0  0  0  0
  2 24  1  0  0  0  0
  2 25  1  0  0  0  0
  6 26  1  0  0  0  0
  6 27  1  0  0  0  0
 12 28  1  0  0  0  0
 12 29  1  0  0  0  0
 13 30  1  0  0  0  0
 13 31  1  0  0  0  0
 13 32  1  0  0  0  0
 18 33  1  0  0  0  0
 18 34  1  0  0  0  0
 18 35  1  0  0  0  0
 20 36  1  0  0  0  0
 20 37  1  0  0  0  0
 20 38  1  0  0  0  0
M  END
