 xtb: 6.7.1 (edcfbbe)
          04092505213D

 41 40  0     0  0            999 V2000
    2.8606   -1.6407   -2.5927 C   0  0  0  0  0  0  0  0  0  0  0  0
    1.5207   -1.0984   -2.1413 C   0  0  0  0  0  0  0  0  0  0  0  0
    1.4101   -1.0542   -0.7059 O   0  0  0  0  0  0  0  0  0  0  0  0
    2.3136   -0.0469    0.1586 P   0  0  0  0  0  0  0  0  0  0  0  0
    2.6115    1.7201   -0.6217 S   0  0  0  0  0  0  0  0  0  0  0  0
    3.6912   -0.7733    0.4439 O   0  0  0  0  0  0  0  0  0  0  0  0
    3.7885   -2.1155    0.9850 C   0  0  0  0  0  0  0  0  0  0  0  0
    4.1362   -2.0715    2.4591 C   0  0  0  0  0  0  0  0  0  0  0  0
    1.2950   -0.1491    1.9963 S   0  0  0  0  0  0  0  0  0  0  0  0
   -0.1486    0.8787    1.6104 C   0  0  0  0  0  0  0  0  0  0  0  0
   -1.6429   -0.1274    1.3692 S   0  0  0  0  0  0  0  0  0  0  0  0
   -2.3071    0.6405   -0.5042 P   0  0  0  0  0  0  0  0  0  0  0  0
   -0.9416    1.3706   -1.7001 S   0  0  0  0  0  0  0  0  0  0  0  0
   -3.3960    1.7269   -0.1598 O   0  0  0  0  0  0  0  0  0  0  0  0
   -4.5566    1.4560    0.6719 C   0  0  0  0  0  0  0  0  0  0  0  0
   -4.4151    2.1537    2.0098 C   0  0  0  0  0  0  0  0  0  0  0  0
   -3.1980   -0.5365   -1.0966 O   0  0  0  0  0  0  0  0  0  0  0  0
   -2.6494   -1.6160   -1.8737 C   0  0  0  0  0  0  0  0  0  0  0  0
   -1.8907   -2.6122   -1.0189 C   0  0  0  0  0  0  0  0  0  0  0  0
    2.8702   -1.7051   -3.6763 H   0  0  0  0  0  0  0  0  0  0  0  0
    3.6575   -0.9696   -2.2734 H   0  0  0  0  0  0  0  0  0  0  0  0
    3.0321   -2.6278   -2.1709 H   0  0  0  0  0  0  0  0  0  0  0  0
    0.6986   -1.7454   -2.4511 H   0  0  0  0  0  0  0  0  0  0  0  0
    1.3559   -0.0889   -2.5314 H   0  0  0  0  0  0  0  0  0  0  0  0
    2.8453   -2.6404    0.8153 H   0  0  0  0  0  0  0  0  0  0  0  0
    4.5860   -2.5855    0.4065 H   0  0  0  0  0  0  0  0  0  0  0  0
    3.3312   -1.6102    3.0271 H   0  0  0  0  0  0  0  0  0  0  0  0
    4.2902   -3.0846    2.8171 H   0  0  0  0  0  0  0  0  0  0  0  0
    5.0450   -1.4953    2.6081 H   0  0  0  0  0  0  0  0  0  0  0  0
    0.0535    1.4514    0.7001 H   0  0  0  0  0  0  0  0  0  0  0  0
   -0.3064    1.5335    2.4630 H   0  0  0  0  0  0  0  0  0  0  0  0
   -5.4012    1.8507    0.1053 H   0  0  0  0  0  0  0  0  0  0  0  0
   -4.6664    0.3768    0.7929 H   0  0  0  0  0  0  0  0  0  0  0  0
   -4.2133    3.2106    1.8581 H   0  0  0  0  0  0  0  0  0  0  0  0
   -5.3408    2.0429    2.5654 H   0  0  0  0  0  0  0  0  0  0  0  0
   -3.6028    1.7171    2.5854 H   0  0  0  0  0  0  0  0  0  0  0  0
   -3.5261   -2.0731   -2.3355 H   0  0  0  0  0  0  0  0  0  0  0  0
   -2.0038   -1.1884   -2.6480 H   0  0  0  0  0  0  0  0  0  0  0  0
   -1.6339   -3.4765   -1.6237 H   0  0  0  0  0  0  0  0  0  0  0  0
   -0.9762   -2.1665   -0.6321 H   0  0  0  0  0  0  0  0  0  0  0  0
   -2.5038   -2.9313   -0.1801 H   0  0  0  0  0  0  0  0  0  0  0  0
  1  2  1  0  0  0  0
  2  3  1  0  0  0  0
  3  4  1  0  0  0  0
  4  5  2  0  0  0  0
  4  6  2  0  0  0  0
  6  7  1  0  0  0  0
  7  8  1  0  0  0  0
  4  9  1  0  0  0  0
  9 10  1  0  0  0  0
 10 11  1  0  0  0  0
 11 12  1  0  0  0  0
 12 13  2  0  0  0  0
 12 14  2  0  0  0  0
 14 15  1  0  0  0  0
 15 16  1  0  0  0  0
 12 17  2  0  0  0  0
 17 18  1  0  0  0  0
 18 19  1  0  0  0  0
  1 20  1  0  0  0  0
  1 21  1  0  0  0  0
  1 22  1  0  0  0  0
  2 23  1  0  0  0  0
  2 24  1  0  0  0  0
  7 25  1  0  0  0  0
  7 26  1  0  0  0  0
  8 27  1  0  0  0  0
  8 28  1  0  0  0  0
  8 29  1  0  0  0  0
 10 30  1  0  0  0  0
 10 31  1  0  0  0  0
 15 32  1  0  0  0  0
 15 33  1  0  0  0  0
 16 34  1  0  0  0  0
 16 35  1  0  0  0  0
 16 36  1  0  0  0  0
 18 37  1  0  0  0  0
 18 38  1  0  0  0  0
 19 39  1  0  0  0  0
 19 40  1  0  0  0  0
 19 41  1  0  0  0  0
M  END
