 xtb: 6.7.1 (edcfbbe)
          04092505213D

 41 40  0     0  0            999 V2000
    4.8272   -1.8913   -0.7773 C   0  0  0  0  0  0  0  0  0  0  0  0
    4.3584   -1.3721    0.5652 C   0  0  0  0  0  0  0  0  0  0  0  0
    3.6635   -0.1128    0.4680 O   0  0  0  0  0  0  0  0  0  0  0  0
    2.4129    0.1726   -0.4702 P   0  0  0  0  0  0  0  0  0  0  0  0
    2.7250    0.4766   -2.3764 S   0  0  0  0  0  0  0  0  0  0  0  0
    1.8141    1.4790    0.1842 O   0  0  0  0  0  0  0  0  0  0  0  0
    1.5273    1.6116    1.5952 C   0  0  0  0  0  0  0  0  0  0  0  0
    2.6204    2.3985    2.2877 C   0  0  0  0  0  0  0  0  0  0  0  0
    1.1010   -1.4306    0.0201 S   0  0  0  0  0  0  0  0  0  0  0  0
   -0.0329   -1.2167   -1.3711 C   0  0  0  0  0  0  0  0  0  0  0  0
   -0.7963    0.4353   -1.4673 S   0  0  0  0  0  0  0  0  0  0  0  0
   -2.2340    0.2617    0.0771 P   0  0  0  0  0  0  0  0  0  0  0  0
   -3.3567    1.8607    0.2180 S   0  0  0  0  0  0  0  0  0  0  0  0
   -1.3046   -0.1116    1.3019 O   0  0  0  0  0  0  0  0  0  0  0  0
   -1.7386   -0.8958    2.4387 C   0  0  0  0  0  0  0  0  0  0  0  0
   -2.8542   -0.2160    3.2027 C   0  0  0  0  0  0  0  0  0  0  0  0
   -2.9865   -1.1193   -0.1939 O   0  0  0  0  0  0  0  0  0  0  0  0
   -4.1611   -1.1954   -1.0258 C   0  0  0  0  0  0  0  0  0  0  0  0
   -5.4144   -1.1737   -0.1730 C   0  0  0  0  0  0  0  0  0  0  0  0
    3.9726   -2.1230   -1.4110 H   0  0  0  0  0  0  0  0  0  0  0  0
    5.4332   -1.1434   -1.2832 H   0  0  0  0  0  0  0  0  0  0  0  0
    5.4146   -2.7918   -0.6299 H   0  0  0  0  0  0  0  0  0  0  0  0
    5.2009   -1.1491    1.2221 H   0  0  0  0  0  0  0  0  0  0  0  0
    3.6905   -2.0920    1.0463 H   0  0  0  0  0  0  0  0  0  0  0  0
    0.5679    2.1337    1.6367 H   0  0  0  0  0  0  0  0  0  0  0  0
    1.4168    0.6146    2.0314 H   0  0  0  0  0  0  0  0  0  0  0  0
    3.5661    1.8678    2.2154 H   0  0  0  0  0  0  0  0  0  0  0  0
    2.7292    3.3725    1.8185 H   0  0  0  0  0  0  0  0  0  0  0  0
    2.3574    2.5303    3.3325 H   0  0  0  0  0  0  0  0  0  0  0  0
   -0.8020   -1.9782   -1.2713 H   0  0  0  0  0  0  0  0  0  0  0  0
    0.5221   -1.3251   -2.3025 H   0  0  0  0  0  0  0  0  0  0  0  0
   -2.0483   -1.8788    2.0797 H   0  0  0  0  0  0  0  0  0  0  0  0
   -0.8342   -0.9913    3.0416 H   0  0  0  0  0  0  0  0  0  0  0  0
   -2.5474    0.7774    3.5208 H   0  0  0  0  0  0  0  0  0  0  0  0
   -3.7333   -0.1147    2.5679 H   0  0  0  0  0  0  0  0  0  0  0  0
   -3.1102   -0.8103    4.0741 H   0  0  0  0  0  0  0  0  0  0  0  0
   -4.1595   -0.3614   -1.7332 H   0  0  0  0  0  0  0  0  0  0  0  0
   -4.0639   -2.1378   -1.5679 H   0  0  0  0  0  0  0  0  0  0  0  0
   -6.2816   -1.3138   -0.8101 H   0  0  0  0  0  0  0  0  0  0  0  0
   -5.3795   -1.9685    0.5668 H   0  0  0  0  0  0  0  0  0  0  0  0
   -5.5021   -0.2154    0.3347 H   0  0  0  0  0  0  0  0  0  0  0  0
  1  2  1  0  0  0  0
  2  3  1  0  0  0  0
  3  4  2  0  0  0  0
  4  5  2  0  0  0  0
  4  6  2  0  0  0  0
  6  7  1  0  0  0  0
  7  8  1  0  0  0  0
  4  9  1  0  0  0  0
  9 10  1  0  0  0  0
 10 11  1  0  0  0  0
 11 12  1  0  0  0  0
 12 13  2  0  0  0  0
 12 14  2  0  0  0  0
 14 15  1  0  0  0  0
 15 16  1  0  0  0  0
 12 17  2  0  0  0  0
 17 18  1  0  0  0  0
 18 19  1  0  0  0  0
  1 20  1  0  0  0  0
  1 21  1  0  0  0  0
  1 22  1  0  0  0  0
  2 23  1  0  0  0  0
  2 24  1  0  0  0  0
  7 25  1  0  0  0  0
  7 26  1  0  0  0  0
  8 27  1  0  0  0  0
  8 28  1  0  0  0  0
  8 29  1  0  0  0  0
 10 30  1  0  0  0  0
 10 31  1  0  0  0  0
 15 32  1  0  0  0  0
 15 33  1  0  0  0  0
 16 34  1  0  0  0  0
 16 35  1  0  0  0  0
 16 36  1  0  0  0  0
 18 37  1  0  0  0  0
 18 38  1  0  0  0  0
 19 39  1  0  0  0  0
 19 40  1  0  0  0  0
 19 41  1  0  0  0  0
M  END
