 xtb: 6.7.1 (edcfbbe)
          04092505213D

 41 40  0     0  0            999 V2000
    4.0185    2.0412   -1.0439 C   0  0  0  0  0  0  0  0  0  0  0  0
    2.7510    1.5129   -1.6802 C   0  0  0  0  0  0  0  0  0  0  0  0
    2.4481    0.1726   -1.2441 O   0  0  0  0  0  0  0  0  0  0  0  0
    2.1027   -0.1884    0.2499 P   0  0  0  0  0  0  0  0  0  0  0  0
    1.2215    1.1473    1.3887 S   0  0  0  0  0  0  0  0  0  0  0  0
    3.5443   -0.6087    0.7816 O   0  0  0  0  0  0  0  0  0  0  0  0
    3.7497   -1.0281    2.1437 C   0  0  0  0  0  0  0  0  0  0  0  0
    5.2426   -1.0609    2.4012 C   0  0  0  0  0  0  0  0  0  0  0  0
    1.1162   -2.0420    0.0268 S   0  0  0  0  0  0  0  0  0  0  0  0
   -0.3881   -1.7630    1.0287 C   0  0  0  0  0  0  0  0  0  0  0  0
   -1.9273   -1.8942    0.0873 S   0  0  0  0  0  0  0  0  0  0  0  0
   -2.0806    0.0676   -0.6607 P   0  0  0  0  0  0  0  0  0  0  0  0
   -0.6597    0.8291   -1.7722 S   0  0  0  0  0  0  0  0  0  0  0  0
   -2.3323    0.8467    0.7126 O   0  0  0  0  0  0  0  0  0  0  0  0
   -2.1152    2.2603    0.8443 C   0  0  0  0  0  0  0  0  0  0  0  0
   -3.1850    3.0542    0.1247 C   0  0  0  0  0  0  0  0  0  0  0  0
   -3.4216    0.0344   -1.5018 O   0  0  0  0  0  0  0  0  0  0  0  0
   -4.5927   -0.7653   -1.2121 C   0  0  0  0  0  0  0  0  0  0  0  0
   -5.2659   -0.3645    0.0834 C   0  0  0  0  0  0  0  0  0  0  0  0
    4.2512    3.0151   -1.4630 H   0  0  0  0  0  0  0  0  0  0  0  0
    3.8777    2.1420    0.0320 H   0  0  0  0  0  0  0  0  0  0  0  0
    4.8424    1.3570   -1.2290 H   0  0  0  0  0  0  0  0  0  0  0  0
    2.8430    1.4142   -2.7626 H   0  0  0  0  0  0  0  0  0  0  0  0
    1.8921    2.1517   -1.4505 H   0  0  0  0  0  0  0  0  0  0  0  0
    3.2422   -0.3188    2.8066 H   0  0  0  0  0  0  0  0  0  0  0  0
    3.3020   -2.0185    2.2689 H   0  0  0  0  0  0  0  0  0  0  0  0
    5.6666   -0.0688    2.2755 H   0  0  0  0  0  0  0  0  0  0  0  0
    5.4214   -1.4017    3.4156 H   0  0  0  0  0  0  0  0  0  0  0  0
    5.7226   -1.7396    1.7022 H   0  0  0  0  0  0  0  0  0  0  0  0
   -0.3238   -0.7780    1.4993 H   0  0  0  0  0  0  0  0  0  0  0  0
   -0.4345   -2.5561    1.7700 H   0  0  0  0  0  0  0  0  0  0  0  0
   -2.1257    2.4330    1.9213 H   0  0  0  0  0  0  0  0  0  0  0  0
   -1.1224    2.5023    0.4515 H   0  0  0  0  0  0  0  0  0  0  0  0
   -2.9930    4.1147    0.2531 H   0  0  0  0  0  0  0  0  0  0  0  0
   -3.1630    2.8148   -0.9386 H   0  0  0  0  0  0  0  0  0  0  0  0
   -4.1666    2.8144    0.5240 H   0  0  0  0  0  0  0  0  0  0  0  0
   -5.2369   -0.5843   -2.0742 H   0  0  0  0  0  0  0  0  0  0  0  0
   -4.2937   -1.8160   -1.1881 H   0  0  0  0  0  0  0  0  0  0  0  0
   -6.1560   -0.9708    0.2194 H   0  0  0  0  0  0  0  0  0  0  0  0
   -4.5945   -0.5271    0.9234 H   0  0  0  0  0  0  0  0  0  0  0  0
   -5.5503    0.6840    0.0526 H   0  0  0  0  0  0  0  0  0  0  0  0
  1  2  1  0  0  0  0
  2  3  1  0  0  0  0
  3  4  2  0  0  0  0
  4  5  2  0  0  0  0
  4  6  2  0  0  0  0
  6  7  1  0  0  0  0
  7  8  1  0  0  0  0
  4  9  1  0  0  0  0
  9 10  1  0  0  0  0
 10 11  1  0  0  0  0
 11 12  1  0  0  0  0
 12 13  2  0  0  0  0
 12 14  1  0  0  0  0
 14 15  1  0  0  0  0
 15 16  1  0  0  0  0
 12 17  2  0  0  0  0
 17 18  1  0  0  0  0
 18 19  1  0  0  0  0
  1 20  1  0  0  0  0
  1 21  1  0  0  0  0
  1 22  1  0  0  0  0
  2 23  1  0  0  0  0
  2 24  1  0  0  0  0
  7 25  1  0  0  0  0
  7 26  1  0  0  0  0
  8 27  1  0  0  0  0
  8 28  1  0  0  0  0
  8 29  1  0  0  0  0
 10 30  1  0  0  0  0
 10 31  1  0  0  0  0
 15 32  1  0  0  0  0
 15 33  1  0  0  0  0
 16 34  1  0  0  0  0
 16 35  1  0  0  0  0
 16 36  1  0  0  0  0
 18 37  1  0  0  0  0
 18 38  1  0  0  0  0
 19 39  1  0  0  0  0
 19 40  1  0  0  0  0
 19 41  1  0  0  0  0
M  END
