 xtb: 6.7.1 (edcfbbe)
          04092505203D

 41 40  0     0  0            999 V2000
    4.1390   -0.7169   -2.2123 C   0  0  0  0  0  0  0  0  0  0  0  0
    4.3817   -0.7751   -0.7176 C   0  0  0  0  0  0  0  0  0  0  0  0
    3.1538   -0.7232    0.0270 O   0  0  0  0  0  0  0  0  0  0  0  0
    2.2851    0.6151    0.1067 P   0  0  0  0  0  0  0  0  0  0  0  0
    3.3533    2.2562    0.1889 S   0  0  0  0  0  0  0  0  0  0  0  0
    1.3492    0.3408    1.3554 O   0  0  0  0  0  0  0  0  0  0  0  0
    1.8781    0.2538    2.6991 C   0  0  0  0  0  0  0  0  0  0  0  0
    2.1035   -1.1927    3.0894 C   0  0  0  0  0  0  0  0  0  0  0  0
    0.8306    0.4815   -1.4149 S   0  0  0  0  0  0  0  0  0  0  0  0
    0.2891   -1.2369   -1.1370 C   0  0  0  0  0  0  0  0  0  0  0  0
   -0.8389   -1.4477    0.2612 S   0  0  0  0  0  0  0  0  0  0  0  0
   -2.3349   -0.0948   -0.4122 P   0  0  0  0  0  0  0  0  0  0  0  0
   -2.6429   -0.0223   -2.3405 S   0  0  0  0  0  0  0  0  0  0  0  0
   -1.9161    1.3121    0.1758 O   0  0  0  0  0  0  0  0  0  0  0  0
   -1.7078    1.5610    1.5851 C   0  0  0  0  0  0  0  0  0  0  0  0
   -2.9449    2.1657    2.2161 C   0  0  0  0  0  0  0  0  0  0  0  0
   -3.6001   -0.4710    0.4765 O   0  0  0  0  0  0  0  0  0  0  0  0
   -4.5533   -1.4737    0.0763 C   0  0  0  0  0  0  0  0  0  0  0  0
   -3.9539   -2.8645    0.0494 C   0  0  0  0  0  0  0  0  0  0  0  0
    3.4797   -1.5212   -2.5286 H   0  0  0  0  0  0  0  0  0  0  0  0
    3.6813    0.2370   -2.4749 H   0  0  0  0  0  0  0  0  0  0  0  0
    5.0865   -0.8053   -2.7339 H   0  0  0  0  0  0  0  0  0  0  0  0
    5.0128    0.0614   -0.4013 H   0  0  0  0  0  0  0  0  0  0  0  0
    4.8363   -1.7203   -0.4179 H   0  0  0  0  0  0  0  0  0  0  0  0
    2.8020    0.8386    2.7533 H   0  0  0  0  0  0  0  0  0  0  0  0
    1.1170    0.7208    3.3272 H   0  0  0  0  0  0  0  0  0  0  0  0
    1.1840   -1.7569    2.9561 H   0  0  0  0  0  0  0  0  0  0  0  0
    2.8787   -1.6366    2.4710 H   0  0  0  0  0  0  0  0  0  0  0  0
    2.4075   -1.2365    4.1304 H   0  0  0  0  0  0  0  0  0  0  0  0
    1.1505   -1.8705   -0.9421 H   0  0  0  0  0  0  0  0  0  0  0  0
   -0.2228   -1.5222   -2.0553 H   0  0  0  0  0  0  0  0  0  0  0  0
   -1.4309    0.6218    2.0730 H   0  0  0  0  0  0  0  0  0  0  0  0
   -0.8629    2.2535    1.6178 H   0  0  0  0  0  0  0  0  0  0  0  0
   -2.7304    2.4139    3.2509 H   0  0  0  0  0  0  0  0  0  0  0  0
   -3.2296    3.0683    1.6822 H   0  0  0  0  0  0  0  0  0  0  0  0
   -3.7697    1.4595    2.1777 H   0  0  0  0  0  0  0  0  0  0  0  0
   -5.3448   -1.3906    0.8225 H   0  0  0  0  0  0  0  0  0  0  0  0
   -4.9414   -1.2028   -0.9101 H   0  0  0  0  0  0  0  0  0  0  0  0
   -4.7438   -3.5889   -0.1214 H   0  0  0  0  0  0  0  0  0  0  0  0
   -3.2265   -2.9410   -0.7568 H   0  0  0  0  0  0  0  0  0  0  0  0
   -3.4599   -3.0836    0.9925 H   0  0  0  0  0  0  0  0  0  0  0  0
  1  2  1  0  0  0  0
  2  3  1  0  0  0  0
  3  4  2  0  0  0  0
  4  5  2  0  0  0  0
  4  6  2  0  0  0  0
  6  7  1  0  0  0  0
  7  8  1  0  0  0  0
  4  9  1  0  0  0  0
  9 10  1  0  0  0  0
 10 11  1  0  0  0  0
 11 12  1  0  0  0  0
 12 13  2  0  0  0  0
 12 14  2  0  0  0  0
 14 15  1  0  0  0  0
 15 16  1  0  0  0  0
 12 17  2  0  0  0  0
 17 18  1  0  0  0  0
 18 19  1  0  0  0  0
  1 20  1  0  0  0  0
  1 21  1  0  0  0  0
  1 22  1  0  0  0  0
  2 23  1  0  0  0  0
  2 24  1  0  0  0  0
  7 25  1  0  0  0  0
  7 26  1  0  0  0  0
  8 27  1  0  0  0  0
  8 28  1  0  0  0  0
  8 29  1  0  0  0  0
 10 30  1  0  0  0  0
 10 31  1  0  0  0  0
 15 32  1  0  0  0  0
 15 33  1  0  0  0  0
 16 34  1  0  0  0  0
 16 35  1  0  0  0  0
 16 36  1  0  0  0  0
 18 37  1  0  0  0  0
 18 38  1  0  0  0  0
 19 39  1  0  0  0  0
 19 40  1  0  0  0  0
 19 41  1  0  0  0  0
M  END
