 xtb: 6.7.1 (edcfbbe)
          04092505213D

 41 40  0     0  0            999 V2000
    4.7848   -2.1811   -0.1599 C   0  0  0  0  0  0  0  0  0  0  0  0
    4.1485   -1.7183   -1.4555 C   0  0  0  0  0  0  0  0  0  0  0  0
    2.7270   -1.5458   -1.3065 O   0  0  0  0  0  0  0  0  0  0  0  0
    2.0724   -0.2843   -0.5866 P   0  0  0  0  0  0  0  0  0  0  0  0
    3.2224    1.2934   -0.4053 S   0  0  0  0  0  0  0  0  0  0  0  0
    1.4627   -0.8459    0.7708 O   0  0  0  0  0  0  0  0  0  0  0  0
    2.0252   -0.6330    2.0820 C   0  0  0  0  0  0  0  0  0  0  0  0
    0.9165   -0.2834    3.0551 C   0  0  0  0  0  0  0  0  0  0  0  0
    0.3680   -0.1473   -1.8073 S   0  0  0  0  0  0  0  0  0  0  0  0
   -0.1119    1.5362   -1.3234 C   0  0  0  0  0  0  0  0  0  0  0  0
   -0.5823    1.6552    0.4162 S   0  0  0  0  0  0  0  0  0  0  0  0
   -2.2498    0.3435    0.3113 P   0  0  0  0  0  0  0  0  0  0  0  0
   -3.3014    0.4402   -1.3463 S   0  0  0  0  0  0  0  0  0  0  0  0
   -2.9926    0.6209    1.6835 O   0  0  0  0  0  0  0  0  0  0  0  0
   -3.3408    1.9188    2.2003 C   0  0  0  0  0  0  0  0  0  0  0  0
   -4.1738    2.7329    1.2317 C   0  0  0  0  0  0  0  0  0  0  0  0
   -1.6996   -1.1015    0.6539 O   0  0  0  0  0  0  0  0  0  0  0  0
   -1.9635   -2.2813   -0.1335 C   0  0  0  0  0  0  0  0  0  0  0  0
   -0.7724   -3.2134   -0.0453 C   0  0  0  0  0  0  0  0  0  0  0  0
    4.2966   -3.0842    0.1969 H   0  0  0  0  0  0  0  0  0  0  0  0
    5.8378   -2.3836   -0.3280 H   0  0  0  0  0  0  0  0  0  0  0  0
    4.6914   -1.4014    0.5956 H   0  0  0  0  0  0  0  0  0  0  0  0
    4.2455   -2.4646   -2.2448 H   0  0  0  0  0  0  0  0  0  0  0  0
    4.5860   -0.7703   -1.7831 H   0  0  0  0  0  0  0  0  0  0  0  0
    2.5179   -1.5657    2.3670 H   0  0  0  0  0  0  0  0  0  0  0  0
    2.7670    0.1711    2.0231 H   0  0  0  0  0  0  0  0  0  0  0  0
    1.3142   -0.2965    4.0647 H   0  0  0  0  0  0  0  0  0  0  0  0
    0.5190    0.7051    2.8407 H   0  0  0  0  0  0  0  0  0  0  0  0
    0.1096   -1.0070    2.9738 H   0  0  0  0  0  0  0  0  0  0  0  0
   -0.9603    1.8043   -1.9530 H   0  0  0  0  0  0  0  0  0  0  0  0
    0.7262    2.2166   -1.4700 H   0  0  0  0  0  0  0  0  0  0  0  0
   -3.8978    1.6891    3.1103 H   0  0  0  0  0  0  0  0  0  0  0  0
   -2.4171    2.4463    2.4545 H   0  0  0  0  0  0  0  0  0  0  0  0
   -4.4875    3.6540    1.7121 H   0  0  0  0  0  0  0  0  0  0  0  0
   -3.5903    2.9764    0.3450 H   0  0  0  0  0  0  0  0  0  0  0  0
   -5.0516    2.1711    0.9216 H   0  0  0  0  0  0  0  0  0  0  0  0
   -2.8592   -2.7503    0.2813 H   0  0  0  0  0  0  0  0  0  0  0  0
   -2.1645   -1.9852   -1.1688 H   0  0  0  0  0  0  0  0  0  0  0  0
   -0.5639   -3.4524    0.9934 H   0  0  0  0  0  0  0  0  0  0  0  0
   -1.0003   -4.1254   -0.5876 H   0  0  0  0  0  0  0  0  0  0  0  0
    0.1093   -2.7514   -0.4833 H   0  0  0  0  0  0  0  0  0  0  0  0
  1  2  1  0  0  0  0
  2  3  1  0  0  0  0
  3  4  1  0  0  0  0
  4  5  2  0  0  0  0
  4  6  2  0  0  0  0
  6  7  1  0  0  0  0
  7  8  1  0  0  0  0
  4  9  1  0  0  0  0
  9 10  1  0  0  0  0
 10 11  1  0  0  0  0
 11 12  1  0  0  0  0
 12 13  2  0  0  0  0
 12 14  2  0  0  0  0
 14 15  1  0  0  0  0
 15 16  1  0  0  0  0
 12 17  2  0  0  0  0
 17 18  1  0  0  0  0
 18 19  1  0  0  0  0
  1 20  1  0  0  0  0
  1 21  1  0  0  0  0
  1 22  1  0  0  0  0
  2 23  1  0  0  0  0
  2 24  1  0  0  0  0
  7 25  1  0  0  0  0
  7 26  1  0  0  0  0
  8 27  1  0  0  0  0
  8 28  1  0  0  0  0
  8 29  1  0  0  0  0
 10 30  1  0  0  0  0
 10 31  1  0  0  0  0
 15 32  1  0  0  0  0
 15 33  1  0  0  0  0
 16 34  1  0  0  0  0
 16 35  1  0  0  0  0
 16 36  1  0  0  0  0
 18 37  1  0  0  0  0
 18 38  1  0  0  0  0
 19 39  1  0  0  0  0
 19 40  1  0  0  0  0
 19 41  1  0  0  0  0
M  END
