 xtb: 6.7.1 (edcfbbe)
          04092505213D

 41 40  0     0  0            999 V2000
    3.8760   -1.0430   -2.4834 C   0  0  0  0  0  0  0  0  0  0  0  0
    4.2303    0.1141   -1.5705 C   0  0  0  0  0  0  0  0  0  0  0  0
    3.6674   -0.0340   -0.2587 O   0  0  0  0  0  0  0  0  0  0  0  0
    2.1017    0.0523    0.0372 P   0  0  0  0  0  0  0  0  0  0  0  0
    1.1994    1.4286   -1.0337 S   0  0  0  0  0  0  0  0  0  0  0  0
    2.1256    0.1848    1.6091 O   0  0  0  0  0  0  0  0  0  0  0  0
    2.1414    1.4509    2.2972 C   0  0  0  0  0  0  0  0  0  0  0  0
    3.3917    2.2511    1.9999 C   0  0  0  0  0  0  0  0  0  0  0  0
    1.4184   -1.9424   -0.1219 S   0  0  0  0  0  0  0  0  0  0  0  0
    0.1470   -1.7604   -1.4207 C   0  0  0  0  0  0  0  0  0  0  0  0
   -1.5436   -2.1271   -0.8699 S   0  0  0  0  0  0  0  0  0  0  0  0
   -2.0732   -0.2677   -0.0144 P   0  0  0  0  0  0  0  0  0  0  0  0
   -1.0622    0.2597    1.5902 S   0  0  0  0  0  0  0  0  0  0  0  0
   -3.6346   -0.4159    0.2257 O   0  0  0  0  0  0  0  0  0  0  0  0
   -4.1927   -0.9408    1.4477 C   0  0  0  0  0  0  0  0  0  0  0  0
   -4.7470    0.1886    2.2941 C   0  0  0  0  0  0  0  0  0  0  0  0
   -2.0120    0.6386   -1.3060 O   0  0  0  0  0  0  0  0  0  0  0  0
   -2.7411    1.8725   -1.4888 C   0  0  0  0  0  0  0  0  0  0  0  0
   -2.3550    2.9240   -0.4711 C   0  0  0  0  0  0  0  0  0  0  0  0
    4.1152   -1.9885   -2.0034 H   0  0  0  0  0  0  0  0  0  0  0  0
    2.8113   -1.0234   -2.7128 H   0  0  0  0  0  0  0  0  0  0  0  0
    4.4366   -0.9546   -3.4084 H   0  0  0  0  0  0  0  0  0  0  0  0
    3.8759    1.0598   -1.9942 H   0  0  0  0  0  0  0  0  0  0  0  0
    5.3046    0.1682   -1.3892 H   0  0  0  0  0  0  0  0  0  0  0  0
    1.2397    2.0046    2.0162 H   0  0  0  0  0  0  0  0  0  0  0  0
    2.0752    1.1695    3.3491 H   0  0  0  0  0  0  0  0  0  0  0  0
    4.2759    1.6554    2.2115 H   0  0  0  0  0  0  0  0  0  0  0  0
    3.4055    2.5434    0.9502 H   0  0  0  0  0  0  0  0  0  0  0  0
    3.3987    3.1450    2.6155 H   0  0  0  0  0  0  0  0  0  0  0  0
    0.3616   -2.4958   -2.1909 H   0  0  0  0  0  0  0  0  0  0  0  0
    0.1801   -0.7412   -1.8138 H   0  0  0  0  0  0  0  0  0  0  0  0
   -4.9771   -1.6291    1.1293 H   0  0  0  0  0  0  0  0  0  0  0  0
   -3.4208   -1.4898    1.9933 H   0  0  0  0  0  0  0  0  0  0  0  0
   -5.2315   -0.2271    3.1715 H   0  0  0  0  0  0  0  0  0  0  0  0
   -3.9385    0.8433    2.6135 H   0  0  0  0  0  0  0  0  0  0  0  0
   -5.4684    0.7665    1.7235 H   0  0  0  0  0  0  0  0  0  0  0  0
   -2.4660    2.1775   -2.4998 H   0  0  0  0  0  0  0  0  0  0  0  0
   -3.8081    1.6459   -1.4392 H   0  0  0  0  0  0  0  0  0  0  0  0
   -2.8702    3.8525   -0.6950 H   0  0  0  0  0  0  0  0  0  0  0  0
   -2.6266    2.5950    0.5311 H   0  0  0  0  0  0  0  0  0  0  0  0
   -1.2801    3.0921   -0.5009 H   0  0  0  0  0  0  0  0  0  0  0  0
  1  2  1  0  0  0  0
  2  3  1  0  0  0  0
  3  4  2  0  0  0  0
  4  5  2  0  0  0  0
  4  6  2  0  0  0  0
  6  7  1  0  0  0  0
  7  8  1  0  0  0  0
  4  9  1  0  0  0  0
  9 10  1  0  0  0  0
 10 11  1  0  0  0  0
 11 12  1  0  0  0  0
 12 13  2  0  0  0  0
 12 14  2  0  0  0  0
 14 15  1  0  0  0  0
 15 16  1  0  0  0  0
 12 17  2  0  0  0  0
 17 18  1  0  0  0  0
 18 19  1  0  0  0  0
  1 20  1  0  0  0  0
  1 21  1  0  0  0  0
  1 22  1  0  0  0  0
  2 23  1  0  0  0  0
  2 24  1  0  0  0  0
  7 25  1  0  0  0  0
  7 26  1  0  0  0  0
  8 27  1  0  0  0  0
  8 28  1  0  0  0  0
  8 29  1  0  0  0  0
 10 30  1  0  0  0  0
 10 31  1  0  0  0  0
 15 32  1  0  0  0  0
 15 33  1  0  0  0  0
 16 34  1  0  0  0  0
 16 35  1  0  0  0  0
 16 36  1  0  0  0  0
 18 37  1  0  0  0  0
 18 38  1  0  0  0  0
 19 39  1  0  0  0  0
 19 40  1  0  0  0  0
 19 41  1  0  0  0  0
M  END
