 xtb: 6.7.1 (edcfbbe)
          04032520443D

 12 12  0     0  0            999 V2000
   -0.1964    1.2660   -0.0000 C   0  0  0  0  0  0  0  0  0  0  0  0
    1.2486    1.1996    0.0001 C   0  0  0  0  0  0  0  0  0  0  0  0
    2.0004    2.1590    0.0000 O   0  0  0  0  0  0  0  0  0  0  0  0
    1.7634   -0.0900   -0.0001 N   0  0  0  0  0  0  0  0  0  0  0  0
    1.0549   -1.2591    0.0001 C   0  0  0  0  0  0  0  0  0  0  0  0
    1.5747   -2.3553    0.0001 O   0  0  0  0  0  0  0  0  0  0  0  0
   -0.3154   -1.1010   -0.0000 N   0  0  0  0  0  0  0  0  0  0  0  0
   -0.9093    0.1217   -0.0002 C   0  0  0  0  0  0  0  0  0  0  0  0
   -2.6266    0.1060    0.0000 Cl  0  0  0  0  0  0  0  0  0  0  0  0
   -0.6565    2.2371    0.0000 H   0  0  0  0  0  0  0  0  0  0  0  0
    2.7760   -0.1756   -0.0003 H   0  0  0  0  0  0  0  0  0  0  0  0
   -0.8755   -1.9476    0.0000 H   0  0  0  0  0  0  0  0  0  0  0  0
  1  2  1  0  0  0  0
  2  3  2  0  0  0  0
  2  4  1  0  0  0  0
  4  5  1  0  0  0  0
  5  6  2  0  0  0  0
  5  7  1  0  0  0  0
  1  8  2  0  0  0  0
  7  8  1  0  0  0  0
  8  9  1  0  0  0  0
  1 10  1  0  0  0  0
  4 11  1  0  0  0  0
  7 12  1  0  0  0  0
M  END
