 xtb: 6.7.1 (edcfbbe)
          04092505213D

 41 40  0     0  0            999 V2000
    2.6582   -0.3020   -2.9656 C   0  0  0  0  0  0  0  0  0  0  0  0
    3.4607   -0.5052   -1.6958 C   0  0  0  0  0  0  0  0  0  0  0  0
    2.6178   -0.9872   -0.6244 O   0  0  0  0  0  0  0  0  0  0  0  0
    1.9911   -0.0208    0.4614 P   0  0  0  0  0  0  0  0  0  0  0  0
    1.2582    1.7065   -0.1541 S   0  0  0  0  0  0  0  0  0  0  0  0
    3.2369    0.2004    1.4291 O   0  0  0  0  0  0  0  0  0  0  0  0
    3.2731    1.2052    2.4542 C   0  0  0  0  0  0  0  0  0  0  0  0
    2.5529    0.7401    3.7036 C   0  0  0  0  0  0  0  0  0  0  0  0
    0.8143   -1.4087    1.5152 S   0  0  0  0  0  0  0  0  0  0  0  0
   -0.1875   -2.1680    0.1839 C   0  0  0  0  0  0  0  0  0  0  0  0
   -0.4279   -1.1383   -1.2847 S   0  0  0  0  0  0  0  0  0  0  0  0
   -1.9524    0.1481   -0.6140 P   0  0  0  0  0  0  0  0  0  0  0  0
   -2.3655    1.7053   -1.7263 S   0  0  0  0  0  0  0  0  0  0  0  0
   -1.4777    0.4086    0.8739 O   0  0  0  0  0  0  0  0  0  0  0  0
   -2.2109    1.3260    1.7184 C   0  0  0  0  0  0  0  0  0  0  0  0
   -1.3308    1.6693    2.9010 C   0  0  0  0  0  0  0  0  0  0  0  0
   -3.2183   -0.7934   -0.3372 O   0  0  0  0  0  0  0  0  0  0  0  0
   -4.2206   -1.0351   -1.3357 C   0  0  0  0  0  0  0  0  0  0  0  0
   -3.6951   -1.8970   -2.4660 C   0  0  0  0  0  0  0  0  0  0  0  0
    2.1325   -1.2160   -3.2279 H   0  0  0  0  0  0  0  0  0  0  0  0
    1.9242    0.4899   -2.8277 H   0  0  0  0  0  0  0  0  0  0  0  0
    3.3287   -0.0231   -3.7721 H   0  0  0  0  0  0  0  0  0  0  0  0
    3.9441    0.4243   -1.3830 H   0  0  0  0  0  0  0  0  0  0  0  0
    4.2119   -1.2868   -1.8198 H   0  0  0  0  0  0  0  0  0  0  0  0
    4.3366    1.3649    2.6382 H   0  0  0  0  0  0  0  0  0  0  0  0
    2.8260    2.1237    2.0570 H   0  0  0  0  0  0  0  0  0  0  0  0
    2.6390    1.4995    4.4739 H   0  0  0  0  0  0  0  0  0  0  0  0
    1.5000    0.5717    3.4836 H   0  0  0  0  0  0  0  0  0  0  0  0
    2.9855   -0.1906    4.0600 H   0  0  0  0  0  0  0  0  0  0  0  0
   -1.1512   -2.4150    0.6245 H   0  0  0  0  0  0  0  0  0  0  0  0
    0.3314   -3.0570   -0.1670 H   0  0  0  0  0  0  0  0  0  0  0  0
   -2.4577    2.2159    1.1289 H   0  0  0  0  0  0  0  0  0  0  0  0
   -3.1341    0.8313    2.0298 H   0  0  0  0  0  0  0  0  0  0  0  0
   -0.4166    2.1437    2.5515 H   0  0  0  0  0  0  0  0  0  0  0  0
   -1.8612    2.3549    3.5535 H   0  0  0  0  0  0  0  0  0  0  0  0
   -1.0782    0.7657    3.4495 H   0  0  0  0  0  0  0  0  0  0  0  0
   -5.0259   -1.5280   -0.7894 H   0  0  0  0  0  0  0  0  0  0  0  0
   -4.5641   -0.0689   -1.7191 H   0  0  0  0  0  0  0  0  0  0  0  0
   -2.9051   -1.3656   -2.9968 H   0  0  0  0  0  0  0  0  0  0  0  0
   -3.2934   -2.8303   -2.0805 H   0  0  0  0  0  0  0  0  0  0  0  0
   -4.5020   -2.1107   -3.1594 H   0  0  0  0  0  0  0  0  0  0  0  0
  1  2  1  0  0  0  0
  2  3  1  0  0  0  0
  3  4  2  0  0  0  0
  4  5  2  0  0  0  0
  4  6  2  0  0  0  0
  6  7  1  0  0  0  0
  7  8  1  0  0  0  0
  4  9  1  0  0  0  0
  9 10  1  0  0  0  0
 10 11  1  0  0  0  0
 11 12  1  0  0  0  0
 12 13  2  0  0  0  0
 12 14  2  0  0  0  0
 14 15  1  0  0  0  0
 15 16  1  0  0  0  0
 12 17  1  0  0  0  0
 17 18  1  0  0  0  0
 18 19  1  0  0  0  0
  1 20  1  0  0  0  0
  1 21  1  0  0  0  0
  1 22  1  0  0  0  0
  2 23  1  0  0  0  0
  2 24  1  0  0  0  0
  7 25  1  0  0  0  0
  7 26  1  0  0  0  0
  8 27  1  0  0  0  0
  8 28  1  0  0  0  0
  8 29  1  0  0  0  0
 10 30  1  0  0  0  0
 10 31  1  0  0  0  0
 15 32  1  0  0  0  0
 15 33  1  0  0  0  0
 16 34  1  0  0  0  0
 16 35  1  0  0  0  0
 16 36  1  0  0  0  0
 18 37  1  0  0  0  0
 18 38  1  0  0  0  0
 19 39  1  0  0  0  0
 19 40  1  0  0  0  0
 19 41  1  0  0  0  0
M  END
