 xtb: 6.7.1 (edcfbbe)
          04092507313D

 38 37  0     0  0            999 V2000
    4.0614   -0.2032   -2.3283 C   0  0  0  0  0  0  0  0  0  0  0  0
    3.6867   -1.6737   -2.2394 C   0  0  0  0  0  0  0  0  0  0  0  0
    2.4760   -1.8322   -1.4773 O   0  0  0  0  0  0  0  0  0  0  0  0
    2.5664   -2.1530   -0.1981 C   0  0  0  0  0  0  0  0  0  0  0  0
    3.5943   -2.4299    0.3757 O   0  0  0  0  0  0  0  0  0  0  0  0
    1.1943   -2.2166    0.4527 C   0  0  0  0  0  0  0  0  0  0  0  0
    0.3984   -0.9575    0.1354 C   0  0  0  0  0  0  0  0  0  0  0  0
    0.2554   -0.8644   -0.9497 H   0  0  0  0  0  0  0  0  0  0  0  0
    1.1444    0.2886    0.5757 C   0  0  0  0  0  0  0  0  0  0  0  0
    2.3500    0.3755    0.5368 O   0  0  0  0  0  0  0  0  0  0  0  0
    0.3276    1.2497    0.9500 O   0  0  0  0  0  0  0  0  0  0  0  0
    0.8829    2.5178    1.3545 C   0  0  0  0  0  0  0  0  0  0  0  0
    1.1843    2.5190    2.8434 C   0  0  0  0  0  0  0  0  0  0  0  0
   -1.2598   -1.0327    0.8883 S   0  0  0  0  0  0  0  0  0  0  0  0
   -2.1377    0.6018   -0.1611 P   0  0  0  0  0  0  0  0  0  0  0  0
   -1.2883    1.1218   -1.8473 S   0  0  0  0  0  0  0  0  0  0  0  0
   -3.6543    0.1080   -0.3177 O   0  0  0  0  0  0  0  0  0  0  0  0
   -3.9987   -0.9735   -1.1896 C   0  0  0  0  0  0  0  0  0  0  0  0
   -2.3479    1.8079    0.8352 O   0  0  0  0  0  0  0  0  0  0  0  0
   -3.0123    1.6441    2.1040 C   0  0  0  0  0  0  0  0  0  0  0  0
    3.2674    0.3572   -2.8157 H   0  0  0  0  0  0  0  0  0  0  0  0
    4.2060    0.1997   -1.3279 H   0  0  0  0  0  0  0  0  0  0  0  0
    4.9800   -0.0957   -2.8952 H   0  0  0  0  0  0  0  0  0  0  0  0
    4.4794   -2.2511   -1.7553 H   0  0  0  0  0  0  0  0  0  0  0  0
    3.4585   -2.0869   -3.2228 H   0  0  0  0  0  0  0  0  0  0  0  0
    1.3303   -2.3344    1.5278 H   0  0  0  0  0  0  0  0  0  0  0  0
    0.6668   -3.0875    0.0610 H   0  0  0  0  0  0  0  0  0  0  0  0
    1.7875    2.6984    0.7677 H   0  0  0  0  0  0  0  0  0  0  0  0
    0.1114    3.2439    1.0950 H   0  0  0  0  0  0  0  0  0  0  0  0
    0.2888    2.2788    3.4098 H   0  0  0  0  0  0  0  0  0  0  0  0
    1.9563    1.7865    3.0690 H   0  0  0  0  0  0  0  0  0  0  0  0
    1.5378    3.5031    3.1325 H   0  0  0  0  0  0  0  0  0  0  0  0
   -3.6561   -1.9164   -0.7636 H   0  0  0  0  0  0  0  0  0  0  0  0
   -3.5493   -0.8218   -2.1724 H   0  0  0  0  0  0  0  0  0  0  0  0
   -5.0831   -0.9573   -1.2626 H   0  0  0  0  0  0  0  0  0  0  0  0
   -2.5245    0.8581    2.6807 H   0  0  0  0  0  0  0  0  0  0  0  0
   -4.0590    1.3934    1.9447 H   0  0  0  0  0  0  0  0  0  0  0  0
   -2.9171    2.6057    2.6017 H   0  0  0  0  0  0  0  0  0  0  0  0
  1  2  1  0  0  0  0
  2  3  1  0  0  0  0
  3  4  1  0  0  0  0
  4  5  2  0  0  0  0
  4  6  1  0  0  0  0
  6  7  1  0  0  0  0
  7  8  1  0  0  0  0
  7  9  1  0  0  0  0
  9 10  2  0  0  0  0
  9 11  1  0  0  0  0
 11 12  1  0  0  0  0
 12 13  1  0  0  0  0
  7 14  1  0  0  0  0
 14 15  1  0  0  0  0
 15 16  2  0  0  0  0
 15 17  1  0  0  0  0
 17 18  1  0  0  0  0
 15 19  2  0  0  0  0
 19 20  1  0  0  0  0
  1 21  1  0  0  0  0
  1 22  1  0  0  0  0
  1 23  1  0  0  0  0
  2 24  1  0  0  0  0
  2 25  1  0  0  0  0
  6 26  1  0  0  0  0
  6 27  1  0  0  0  0
 12 28  1  0  0  0  0
 12 29  1  0  0  0  0
 13 30  1  0  0  0  0
 13 31  1  0  0  0  0
 13 32  1  0  0  0  0
 18 33  1  0  0  0  0
 18 34  1  0  0  0  0
 18 35  1  0  0  0  0
 20 36  1  0  0  0  0
 20 37  1  0  0  0  0
 20 38  1  0  0  0  0
M  END
