 xtb: 6.7.1 (edcfbbe)
          04092505203D

 41 40  0     0  0            999 V2000
    5.7234   -0.1970   -0.1343 C   0  0  0  0  0  0  0  0  0  0  0  0
    4.3328   -0.6392   -0.5427 C   0  0  0  0  0  0  0  0  0  0  0  0
    3.3915    0.3164   -0.0136 O   0  0  0  0  0  0  0  0  0  0  0  0
    1.8956    0.3812   -0.5514 P   0  0  0  0  0  0  0  0  0  0  0  0
    1.7330    0.5312   -2.4935 S   0  0  0  0  0  0  0  0  0  0  0  0
    1.3253    1.6091    0.2481 O   0  0  0  0  0  0  0  0  0  0  0  0
    1.4703    1.7496    1.6841 C   0  0  0  0  0  0  0  0  0  0  0  0
    2.6047    2.6967    2.0135 C   0  0  0  0  0  0  0  0  0  0  0  0
    1.0869   -1.3964    0.2976 S   0  0  0  0  0  0  0  0  0  0  0  0
   -0.1319   -1.8630   -0.9695 C   0  0  0  0  0  0  0  0  0  0  0  0
   -1.8107   -2.0048   -0.3196 S   0  0  0  0  0  0  0  0  0  0  0  0
   -2.1205    0.0467    0.1493 P   0  0  0  0  0  0  0  0  0  0  0  0
   -1.5077    1.3495   -1.1782 S   0  0  0  0  0  0  0  0  0  0  0  0
   -1.4569    0.2546    1.5670 O   0  0  0  0  0  0  0  0  0  0  0  0
   -1.8974   -0.5139    2.7244 C   0  0  0  0  0  0  0  0  0  0  0  0
   -0.6958   -0.8369    3.5872 C   0  0  0  0  0  0  0  0  0  0  0  0
   -3.6668    0.1123    0.5123 O   0  0  0  0  0  0  0  0  0  0  0  0
   -4.6939    0.3396   -0.4692 C   0  0  0  0  0  0  0  0  0  0  0  0
   -4.8051   -0.7990   -1.4621 C   0  0  0  0  0  0  0  0  0  0  0  0
    5.9373    0.7866   -0.5432 H   0  0  0  0  0  0  0  0  0  0  0  0
    5.7976   -0.1543    0.9484 H   0  0  0  0  0  0  0  0  0  0  0  0
    6.4481   -0.9081   -0.5166 H   0  0  0  0  0  0  0  0  0  0  0  0
    4.0879   -1.6219   -0.1307 H   0  0  0  0  0  0  0  0  0  0  0  0
    4.2222   -0.6681   -1.6317 H   0  0  0  0  0  0  0  0  0  0  0  0
    0.5060    2.1407    2.0158 H   0  0  0  0  0  0  0  0  0  0  0  0
    1.6371    0.7605    2.1197 H   0  0  0  0  0  0  0  0  0  0  0  0
    2.6484    2.8367    3.0891 H   0  0  0  0  0  0  0  0  0  0  0  0
    3.5483    2.2870    1.6633 H   0  0  0  0  0  0  0  0  0  0  0  0
    2.4387    3.6564    1.5314 H   0  0  0  0  0  0  0  0  0  0  0  0
    0.1306   -2.8494   -1.3433 H   0  0  0  0  0  0  0  0  0  0  0  0
   -0.0971   -1.1171   -1.7688 H   0  0  0  0  0  0  0  0  0  0  0  0
   -2.6222    0.1061    3.2541 H   0  0  0  0  0  0  0  0  0  0  0  0
   -2.3890   -1.4252    2.3728 H   0  0  0  0  0  0  0  0  0  0  0  0
   -0.2126    0.0772    3.9194 H   0  0  0  0  0  0  0  0  0  0  0  0
   -1.0302   -1.3998    4.4528 H   0  0  0  0  0  0  0  0  0  0  0  0
    0.0198   -1.4351    3.0284 H   0  0  0  0  0  0  0  0  0  0  0  0
   -5.6008    0.4446    0.1280 H   0  0  0  0  0  0  0  0  0  0  0  0
   -4.4750    1.2796   -0.9849 H   0  0  0  0  0  0  0  0  0  0  0  0
   -4.9005   -1.7487   -0.9418 H   0  0  0  0  0  0  0  0  0  0  0  0
   -5.6760   -0.6414   -2.0902 H   0  0  0  0  0  0  0  0  0  0  0  0
   -3.9183   -0.8300   -2.0936 H   0  0  0  0  0  0  0  0  0  0  0  0
  1  2  1  0  0  0  0
  2  3  1  0  0  0  0
  3  4  2  0  0  0  0
  4  5  2  0  0  0  0
  4  6  2  0  0  0  0
  6  7  1  0  0  0  0
  7  8  1  0  0  0  0
  4  9  1  0  0  0  0
  9 10  1  0  0  0  0
 10 11  1  0  0  0  0
 11 12  1  0  0  0  0
 12 13  2  0  0  0  0
 12 14  2  0  0  0  0
 14 15  1  0  0  0  0
 15 16  1  0  0  0  0
 12 17  2  0  0  0  0
 17 18  1  0  0  0  0
 18 19  1  0  0  0  0
  1 20  1  0  0  0  0
  1 21  1  0  0  0  0
  1 22  1  0  0  0  0
  2 23  1  0  0  0  0
  2 24  1  0  0  0  0
  7 25  1  0  0  0  0
  7 26  1  0  0  0  0
  8 27  1  0  0  0  0
  8 28  1  0  0  0  0
  8 29  1  0  0  0  0
 10 30  1  0  0  0  0
 10 31  1  0  0  0  0
 15 32  1  0  0  0  0
 15 33  1  0  0  0  0
 16 34  1  0  0  0  0
 16 35  1  0  0  0  0
 16 36  1  0  0  0  0
 18 37  1  0  0  0  0
 18 38  1  0  0  0  0
 19 39  1  0  0  0  0
 19 40  1  0  0  0  0
 19 41  1  0  0  0  0
M  END
