 xtb: 6.7.1 (edcfbbe)
          04032519413D

  8  7  0     0  0            999 V2000
   -0.6501   -0.9985   -0.3844 C   0  0  0  0  0  0  0  0  0  0  0  0
    0.6496   -0.9981    0.3846 C   0  0  0  0  0  0  0  0  0  0  0  0
    1.6662    0.4182   -0.0658 Cl  0  0  0  0  0  0  0  0  0  0  0  0
   -1.6660    0.4184    0.0657 Cl  0  0  0  0  0  0  0  0  0  0  0  0
   -1.2293   -1.8867   -0.1379 H   0  0  0  0  0  0  0  0  0  0  0  0
   -0.4829   -0.9319   -1.4577 H   0  0  0  0  0  0  0  0  0  0  0  0
    0.4824   -0.9306    1.4578 H   0  0  0  0  0  0  0  0  0  0  0  0
    1.2291   -1.8863    0.1386 H   0  0  0  0  0  0  0  0  0  0  0  0
  1  2  1  0  0  0  0
  2  3  1  0  0  0  0
  1  4  1  0  0  0  0
  1  5  1  0  0  0  0
  1  6  1  0  0  0  0
  2  7  1  0  0  0  0
  2  8  1  0  0  0  0
M  END
