 xtb: 6.7.1 (edcfbbe)
          04092505213D

 41 40  0     0  0            999 V2000
    5.0071   -1.3097   -1.6791 C   0  0  0  0  0  0  0  0  0  0  0  0
    4.9052    0.0789   -1.0830 C   0  0  0  0  0  0  0  0  0  0  0  0
    3.8324    0.1687   -0.1293 O   0  0  0  0  0  0  0  0  0  0  0  0
    2.3069    0.0929   -0.5668 P   0  0  0  0  0  0  0  0  0  0  0  0
    1.9127    1.0524   -2.2375 S   0  0  0  0  0  0  0  0  0  0  0  0
    1.5715    0.5966    0.7435 O   0  0  0  0  0  0  0  0  0  0  0  0
    1.5902    1.9886    1.1309 C   0  0  0  0  0  0  0  0  0  0  0  0
    0.7199    2.1304    2.3615 C   0  0  0  0  0  0  0  0  0  0  0  0
    1.8000   -1.9457   -0.4684 S   0  0  0  0  0  0  0  0  0  0  0  0
    0.0116   -1.7642   -0.6823 C   0  0  0  0  0  0  0  0  0  0  0  0
   -0.8279   -1.4787    0.9106 S   0  0  0  0  0  0  0  0  0  0  0  0
   -2.1034    0.0792    0.2981 P   0  0  0  0  0  0  0  0  0  0  0  0
   -1.3963    1.5222   -0.8181 S   0  0  0  0  0  0  0  0  0  0  0  0
   -2.7348    0.6461    1.6351 O   0  0  0  0  0  0  0  0  0  0  0  0
   -3.4237   -0.1882    2.6015 C   0  0  0  0  0  0  0  0  0  0  0  0
   -2.5193   -0.5065    3.7747 C   0  0  0  0  0  0  0  0  0  0  0  0
   -3.2145   -0.8219   -0.4262 O   0  0  0  0  0  0  0  0  0  0  0  0
   -4.1378   -0.2687   -1.3821 C   0  0  0  0  0  0  0  0  0  0  0  0
   -5.1735    0.6121   -0.7133 C   0  0  0  0  0  0  0  0  0  0  0  0
    5.8868   -1.3677   -2.3118 H   0  0  0  0  0  0  0  0  0  0  0  0
    5.0757   -2.0551   -0.8910 H   0  0  0  0  0  0  0  0  0  0  0  0
    4.1228   -1.5175   -2.2809 H   0  0  0  0  0  0  0  0  0  0  0  0
    4.7337    0.8240   -1.8668 H   0  0  0  0  0  0  0  0  0  0  0  0
    5.7930    0.3403   -0.5057 H   0  0  0  0  0  0  0  0  0  0  0  0
    2.6256    2.2733    1.3328 H   0  0  0  0  0  0  0  0  0  0  0  0
    1.2077    2.5849    0.2951 H   0  0  0  0  0  0  0  0  0  0  0  0
    1.0750    1.4658    3.1438 H   0  0  0  0  0  0  0  0  0  0  0  0
    0.7573    3.1581    2.7074 H   0  0  0  0  0  0  0  0  0  0  0  0
   -0.3100    1.8745    2.1193 H   0  0  0  0  0  0  0  0  0  0  0  0
   -0.3511   -2.6960   -1.1073 H   0  0  0  0  0  0  0  0  0  0  0  0
   -0.1845   -0.9170   -1.3452 H   0  0  0  0  0  0  0  0  0  0  0  0
   -4.2805    0.4111    2.9145 H   0  0  0  0  0  0  0  0  0  0  0  0
   -3.7661   -1.0993    2.1056 H   0  0  0  0  0  0  0  0  0  0  0  0
   -1.6703   -1.1042    3.4498 H   0  0  0  0  0  0  0  0  0  0  0  0
   -2.1525    0.4127    4.2230 H   0  0  0  0  0  0  0  0  0  0  0  0
   -3.0840   -1.0653    4.5143 H   0  0  0  0  0  0  0  0  0  0  0  0
   -3.5701    0.3018   -2.1244 H   0  0  0  0  0  0  0  0  0  0  0  0
   -4.5888   -1.1436   -1.8522 H   0  0  0  0  0  0  0  0  0  0  0  0
   -5.8761    0.9703   -1.4592 H   0  0  0  0  0  0  0  0  0  0  0  0
   -5.7112    0.0543    0.0490 H   0  0  0  0  0  0  0  0  0  0  0  0
   -4.6836    1.4686   -0.2505 H   0  0  0  0  0  0  0  0  0  0  0  0
  1  2  1  0  0  0  0
  2  3  1  0  0  0  0
  3  4  2  0  0  0  0
  4  5  2  0  0  0  0
  4  6  2  0  0  0  0
  6  7  1  0  0  0  0
  7  8  1  0  0  0  0
  4  9  1  0  0  0  0
  9 10  1  0  0  0  0
 10 11  1  0  0  0  0
 11 12  1  0  0  0  0
 12 13  2  0  0  0  0
 12 14  2  0  0  0  0
 14 15  1  0  0  0  0
 15 16  1  0  0  0  0
 12 17  1  0  0  0  0
 17 18  1  0  0  0  0
 18 19  1  0  0  0  0
  1 20  1  0  0  0  0
  1 21  1  0  0  0  0
  1 22  1  0  0  0  0
  2 23  1  0  0  0  0
  2 24  1  0  0  0  0
  7 25  1  0  0  0  0
  7 26  1  0  0  0  0
  8 27  1  0  0  0  0
  8 28  1  0  0  0  0
  8 29  1  0  0  0  0
 10 30  1  0  0  0  0
 10 31  1  0  0  0  0
 15 32  1  0  0  0  0
 15 33  1  0  0  0  0
 16 34  1  0  0  0  0
 16 35  1  0  0  0  0
 16 36  1  0  0  0  0
 18 37  1  0  0  0  0
 18 38  1  0  0  0  0
 19 39  1  0  0  0  0
 19 40  1  0  0  0  0
 19 41  1  0  0  0  0
M  END
