 xtb: 6.7.1 (edcfbbe)
          04092505203D

 41 40  0     0  0            999 V2000
    3.4758   -0.7099   -2.8644 C   0  0  0  0  0  0  0  0  0  0  0  0
    2.0452   -0.2942   -2.5973 C   0  0  0  0  0  0  0  0  0  0  0  0
    1.5265   -0.8748   -1.3855 O   0  0  0  0  0  0  0  0  0  0  0  0
    2.1280   -0.5428    0.0430 P   0  0  0  0  0  0  0  0  0  0  0  0
    2.8506    1.2572    0.3528 S   0  0  0  0  0  0  0  0  0  0  0  0
    3.2002   -1.7105    0.1816 O   0  0  0  0  0  0  0  0  0  0  0  0
    4.2407   -1.6966    1.1729 C   0  0  0  0  0  0  0  0  0  0  0  0
    3.6959   -1.8250    2.5810 C   0  0  0  0  0  0  0  0  0  0  0  0
    0.5368   -1.1915    1.2639 S   0  0  0  0  0  0  0  0  0  0  0  0
   -0.0517    0.4101    1.9314 C   0  0  0  0  0  0  0  0  0  0  0  0
   -1.8418    0.5816    1.8439 S   0  0  0  0  0  0  0  0  0  0  0  0
   -2.0956    0.9921   -0.2348 P   0  0  0  0  0  0  0  0  0  0  0  0
   -0.4875    1.6590   -1.1352 S   0  0  0  0  0  0  0  0  0  0  0  0
   -3.2735    2.0250   -0.3345 O   0  0  0  0  0  0  0  0  0  0  0  0
   -4.6825    1.7242   -0.1604 C   0  0  0  0  0  0  0  0  0  0  0  0
   -4.9957    1.1837    1.2176 C   0  0  0  0  0  0  0  0  0  0  0  0
   -2.7504   -0.3128   -0.8719 O   0  0  0  0  0  0  0  0  0  0  0  0
   -2.0113   -1.5156   -1.1500 C   0  0  0  0  0  0  0  0  0  0  0  0
   -2.7798   -2.3010   -2.1935 C   0  0  0  0  0  0  0  0  0  0  0  0
    4.1313   -0.2944   -2.0996 H   0  0  0  0  0  0  0  0  0  0  0  0
    3.5591   -1.7936   -2.8508 H   0  0  0  0  0  0  0  0  0  0  0  0
    3.7832   -0.3321   -3.8344 H   0  0  0  0  0  0  0  0  0  0  0  0
    1.3657   -0.6565   -3.3703 H   0  0  0  0  0  0  0  0  0  0  0  0
    1.9562    0.7949   -2.5193 H   0  0  0  0  0  0  0  0  0  0  0  0
    4.8683   -2.5473    0.9041 H   0  0  0  0  0  0  0  0  0  0  0  0
    4.8061   -0.7653    1.0657 H   0  0  0  0  0  0  0  0  0  0  0  0
    4.5217   -1.9376    3.2761 H   0  0  0  0  0  0  0  0  0  0  0  0
    3.1348   -0.9288    2.8433 H   0  0  0  0  0  0  0  0  0  0  0  0
    3.0382   -2.6873    2.6558 H   0  0  0  0  0  0  0  0  0  0  0  0
    0.4333    1.2167    1.3759 H   0  0  0  0  0  0  0  0  0  0  0  0
    0.1974    0.4532    2.9885 H   0  0  0  0  0  0  0  0  0  0  0  0
   -5.1610    2.6891   -0.3338 H   0  0  0  0  0  0  0  0  0  0  0  0
   -4.9763    1.0166   -0.9373 H   0  0  0  0  0  0  0  0  0  0  0  0
   -4.6341    1.8638    1.9846 H   0  0  0  0  0  0  0  0  0  0  0  0
   -6.0709    1.0709    1.3171 H   0  0  0  0  0  0  0  0  0  0  0  0
   -4.5233    0.2139    1.3618 H   0  0  0  0  0  0  0  0  0  0  0  0
   -1.0122   -1.2456   -1.5085 H   0  0  0  0  0  0  0  0  0  0  0  0
   -1.9112   -2.0803   -0.2184 H   0  0  0  0  0  0  0  0  0  0  0  0
   -2.2448   -3.2198   -2.4097 H   0  0  0  0  0  0  0  0  0  0  0  0
   -3.7715   -2.5409   -1.8216 H   0  0  0  0  0  0  0  0  0  0  0  0
   -2.8752   -1.7177   -3.1053 H   0  0  0  0  0  0  0  0  0  0  0  0
  1  2  1  0  0  0  0
  2  3  1  0  0  0  0
  3  4  2  0  0  0  0
  4  5  2  0  0  0  0
  4  6  2  0  0  0  0
  6  7  1  0  0  0  0
  7  8  1  0  0  0  0
  4  9  1  0  0  0  0
  9 10  1  0  0  0  0
 10 11  1  0  0  0  0
 11 12  1  0  0  0  0
 12 13  2  0  0  0  0
 12 14  2  0  0  0  0
 14 15  1  0  0  0  0
 15 16  1  0  0  0  0
 12 17  2  0  0  0  0
 17 18  1  0  0  0  0
 18 19  1  0  0  0  0
  1 20  1  0  0  0  0
  1 21  1  0  0  0  0
  1 22  1  0  0  0  0
  2 23  1  0  0  0  0
  2 24  1  0  0  0  0
  7 25  1  0  0  0  0
  7 26  1  0  0  0  0
  8 27  1  0  0  0  0
  8 28  1  0  0  0  0
  8 29  1  0  0  0  0
 10 30  1  0  0  0  0
 10 31  1  0  0  0  0
 15 32  1  0  0  0  0
 15 33  1  0  0  0  0
 16 34  1  0  0  0  0
 16 35  1  0  0  0  0
 16 36  1  0  0  0  0
 18 37  1  0  0  0  0
 18 38  1  0  0  0  0
 19 39  1  0  0  0  0
 19 40  1  0  0  0  0
 19 41  1  0  0  0  0
M  END
