 xtb: 6.7.1 (edcfbbe)
          04092507313D

 38 37  0     0  0            999 V2000
    5.4248   -2.2277   -1.7600 C   0  0  0  0  0  0  0  0  0  0  0  0
    4.9300   -1.0993   -0.8691 C   0  0  0  0  0  0  0  0  0  0  0  0
    3.6809   -1.4470   -0.2406 O   0  0  0  0  0  0  0  0  0  0  0  0
    2.5637   -1.2253   -0.9021 C   0  0  0  0  0  0  0  0  0  0  0  0
    2.4981   -0.7197   -2.0004 O   0  0  0  0  0  0  0  0  0  0  0  0
    1.3542   -1.6935   -0.1116 C   0  0  0  0  0  0  0  0  0  0  0  0
    0.2572   -0.6424   -0.2031 C   0  0  0  0  0  0  0  0  0  0  0  0
    0.0898   -0.3730   -1.2550 H   0  0  0  0  0  0  0  0  0  0  0  0
    0.5939    0.6403    0.5309 C   0  0  0  0  0  0  0  0  0  0  0  0
   -0.2532    1.2972    1.1023 O   0  0  0  0  0  0  0  0  0  0  0  0
    1.8605    0.9488    0.4500 O   0  0  0  0  0  0  0  0  0  0  0  0
    2.3137    2.1619    1.0931 C   0  0  0  0  0  0  0  0  0  0  0  0
    2.6510    1.9009    2.5515 C   0  0  0  0  0  0  0  0  0  0  0  0
   -1.3176   -1.2622    0.4715 S   0  0  0  0  0  0  0  0  0  0  0  0
   -2.5338    0.4296    0.0457 P   0  0  0  0  0  0  0  0  0  0  0  0
   -1.9837    1.5788   -1.4422 S   0  0  0  0  0  0  0  0  0  0  0  0
   -3.9373   -0.3046   -0.2403 O   0  0  0  0  0  0  0  0  0  0  0  0
   -4.1404   -1.0967   -1.4129 C   0  0  0  0  0  0  0  0  0  0  0  0
   -2.9288    1.1880    1.3720 O   0  0  0  0  0  0  0  0  0  0  0  0
   -3.4514    0.4993    2.5255 C   0  0  0  0  0  0  0  0  0  0  0  0
    5.5068   -3.1478   -1.1882 H   0  0  0  0  0  0  0  0  0  0  0  0
    4.7335   -2.3825   -2.5853 H   0  0  0  0  0  0  0  0  0  0  0  0
    6.3985   -1.9673   -2.1617 H   0  0  0  0  0  0  0  0  0  0  0  0
    4.7841   -0.1837   -1.4491 H   0  0  0  0  0  0  0  0  0  0  0  0
    5.6130   -0.9214   -0.0386 H   0  0  0  0  0  0  0  0  0  0  0  0
    1.6430   -1.8841    0.9206 H   0  0  0  0  0  0  0  0  0  0  0  0
    0.9912   -2.6213   -0.5579 H   0  0  0  0  0  0  0  0  0  0  0  0
    3.1943    2.4552    0.5218 H   0  0  0  0  0  0  0  0  0  0  0  0
    1.5295    2.9180    0.9980 H   0  0  0  0  0  0  0  0  0  0  0  0
    1.7545    1.6185    3.0986 H   0  0  0  0  0  0  0  0  0  0  0  0
    3.3835    1.1022    2.6292 H   0  0  0  0  0  0  0  0  0  0  0  0
    3.0589    2.8062    2.9887 H   0  0  0  0  0  0  0  0  0  0  0  0
   -5.2118   -1.2717   -1.4671 H   0  0  0  0  0  0  0  0  0  0  0  0
   -3.6001   -2.0389   -1.3217 H   0  0  0  0  0  0  0  0  0  0  0  0
   -3.7982   -0.5537   -2.2957 H   0  0  0  0  0  0  0  0  0  0  0  0
   -3.5115    1.2578    3.3016 H   0  0  0  0  0  0  0  0  0  0  0  0
   -2.7731   -0.3015    2.8208 H   0  0  0  0  0  0  0  0  0  0  0  0
   -4.4353    0.0930    2.2982 H   0  0  0  0  0  0  0  0  0  0  0  0
  1  2  1  0  0  0  0
  2  3  1  0  0  0  0
  3  4  1  0  0  0  0
  4  5  2  0  0  0  0
  4  6  1  0  0  0  0
  6  7  1  0  0  0  0
  7  8  1  0  0  0  0
  7  9  1  0  0  0  0
  9 10  2  0  0  0  0
  9 11  4  0  0  0  0
 11 12  1  0  0  0  0
 12 13  1  0  0  0  0
  7 14  1  0  0  0  0
 14 15  1  0  0  0  0
 15 16  2  0  0  0  0
 15 17  1  0  0  0  0
 17 18  1  0  0  0  0
 15 19  2  0  0  0  0
 19 20  1  0  0  0  0
  1 21  1  0  0  0  0
  1 22  1  0  0  0  0
  1 23  1  0  0  0  0
  2 24  1  0  0  0  0
  2 25  1  0  0  0  0
  6 26  1  0  0  0  0
  6 27  1  0  0  0  0
 12 28  1  0  0  0  0
 12 29  1  0  0  0  0
 13 30  1  0  0  0  0
 13 31  1  0  0  0  0
 13 32  1  0  0  0  0
 18 33  1  0  0  0  0
 18 34  1  0  0  0  0
 18 35  1  0  0  0  0
 20 36  1  0  0  0  0
 20 37  1  0  0  0  0
 20 38  1  0  0  0  0
M  END
