 xtb: 6.7.1 (edcfbbe)
          04092505213D

 41 40  0     0  0            999 V2000
    3.2351   -0.8668   -3.1670 C   0  0  0  0  0  0  0  0  0  0  0  0
    4.0937   -0.7352   -1.9273 C   0  0  0  0  0  0  0  0  0  0  0  0
    3.5586    0.2006   -0.9708 O   0  0  0  0  0  0  0  0  0  0  0  0
    2.0725    0.1967   -0.4089 P   0  0  0  0  0  0  0  0  0  0  0  0
    0.7113    1.0101   -1.5586 S   0  0  0  0  0  0  0  0  0  0  0  0
    2.2250    1.0660    0.8950 O   0  0  0  0  0  0  0  0  0  0  0  0
    3.2282    0.8823    1.9245 C   0  0  0  0  0  0  0  0  0  0  0  0
    2.6766    0.0783    3.0861 C   0  0  0  0  0  0  0  0  0  0  0  0
    1.8525   -1.8484    0.1537 S   0  0  0  0  0  0  0  0  0  0  0  0
    0.2016   -1.8360    0.8962 C   0  0  0  0  0  0  0  0  0  0  0  0
   -1.1384   -1.6063   -0.3153 S   0  0  0  0  0  0  0  0  0  0  0  0
   -1.9522    0.1933    0.4295 P   0  0  0  0  0  0  0  0  0  0  0  0
   -0.9247    1.1976    1.7544 S   0  0  0  0  0  0  0  0  0  0  0  0
   -3.3003   -0.4458    1.0244 O   0  0  0  0  0  0  0  0  0  0  0  0
   -4.0495    0.1815    2.0804 C   0  0  0  0  0  0  0  0  0  0  0  0
   -4.7895    1.4132    1.5976 C   0  0  0  0  0  0  0  0  0  0  0  0
   -2.3983    1.0958   -0.7914 O   0  0  0  0  0  0  0  0  0  0  0  0
   -3.3370    0.6894   -1.8154 C   0  0  0  0  0  0  0  0  0  0  0  0
   -2.6410   -0.0005   -2.9714 C   0  0  0  0  0  0  0  0  0  0  0  0
    3.0773    0.1073   -3.6243 H   0  0  0  0  0  0  0  0  0  0  0  0
    3.7259   -1.5245   -3.8770 H   0  0  0  0  0  0  0  0  0  0  0  0
    2.2629   -1.2843   -2.9082 H   0  0  0  0  0  0  0  0  0  0  0  0
    5.0764   -0.3230   -2.1638 H   0  0  0  0  0  0  0  0  0  0  0  0
    4.2043   -1.7021   -1.4289 H   0  0  0  0  0  0  0  0  0  0  0  0
    4.1076    0.4085    1.4846 H   0  0  0  0  0  0  0  0  0  0  0  0
    3.4714    1.9003    2.2330 H   0  0  0  0  0  0  0  0  0  0  0  0
    2.5479   -0.9657    2.8114 H   0  0  0  0  0  0  0  0  0  0  0  0
    3.3700    0.1403    3.9187 H   0  0  0  0  0  0  0  0  0  0  0  0
    1.7164    0.4896    3.3911 H   0  0  0  0  0  0  0  0  0  0  0  0
    0.1371   -1.0371    1.6397 H   0  0  0  0  0  0  0  0  0  0  0  0
    0.0815   -2.8164    1.3496 H   0  0  0  0  0  0  0  0  0  0  0  0
   -4.7343   -0.5982    2.4165 H   0  0  0  0  0  0  0  0  0  0  0  0
   -3.3566    0.4433    2.8865 H   0  0  0  0  0  0  0  0  0  0  0  0
   -4.0755    2.1595    1.2490 H   0  0  0  0  0  0  0  0  0  0  0  0
   -5.4628    1.1607    0.7824 H   0  0  0  0  0  0  0  0  0  0  0  0
   -5.3621    1.8324    2.4190 H   0  0  0  0  0  0  0  0  0  0  0  0
   -4.0947    0.0429   -1.3645 H   0  0  0  0  0  0  0  0  0  0  0  0
   -3.7876    1.6312   -2.1339 H   0  0  0  0  0  0  0  0  0  0  0  0
   -3.3338   -0.0876   -3.8023 H   0  0  0  0  0  0  0  0  0  0  0  0
   -1.7761    0.5829   -3.2794 H   0  0  0  0  0  0  0  0  0  0  0  0
   -2.3015   -0.9932   -2.6845 H   0  0  0  0  0  0  0  0  0  0  0  0
  1  2  1  0  0  0  0
  2  3  1  0  0  0  0
  3  4  2  0  0  0  0
  4  5  2  0  0  0  0
  4  6  2  0  0  0  0
  6  7  1  0  0  0  0
  7  8  1  0  0  0  0
  4  9  1  0  0  0  0
  9 10  1  0  0  0  0
 10 11  1  0  0  0  0
 11 12  1  0  0  0  0
 12 13  2  0  0  0  0
 12 14  1  0  0  0  0
 14 15  1  0  0  0  0
 15 16  1  0  0  0  0
 12 17  2  0  0  0  0
 17 18  1  0  0  0  0
 18 19  1  0  0  0  0
  1 20  1  0  0  0  0
  1 21  1  0  0  0  0
  1 22  1  0  0  0  0
  2 23  1  0  0  0  0
  2 24  1  0  0  0  0
  7 25  1  0  0  0  0
  7 26  1  0  0  0  0
  8 27  1  0  0  0  0
  8 28  1  0  0  0  0
  8 29  1  0  0  0  0
 10 30  1  0  0  0  0
 10 31  1  0  0  0  0
 15 32  1  0  0  0  0
 15 33  1  0  0  0  0
 16 34  1  0  0  0  0
 16 35  1  0  0  0  0
 16 36  1  0  0  0  0
 18 37  1  0  0  0  0
 18 38  1  0  0  0  0
 19 39  1  0  0  0  0
 19 40  1  0  0  0  0
 19 41  1  0  0  0  0
M  END
