 xtb: 6.7.1 (edcfbbe)
          04092505203D

 41 40  0     0  0            999 V2000
    4.0114   -1.0525   -2.7527 C   0  0  0  0  0  0  0  0  0  0  0  0
    4.3901   -0.6048   -1.3570 C   0  0  0  0  0  0  0  0  0  0  0  0
    3.4311    0.3056   -0.7838 O   0  0  0  0  0  0  0  0  0  0  0  0
    1.8881   -0.0028   -0.5871 P   0  0  0  0  0  0  0  0  0  0  0  0
    0.7059    0.1526   -2.1423 S   0  0  0  0  0  0  0  0  0  0  0  0
    1.4756    1.0670    0.4916 O   0  0  0  0  0  0  0  0  0  0  0  0
    2.2725    1.5560    1.5982 C   0  0  0  0  0  0  0  0  0  0  0  0
    2.5626    0.4861    2.6304 C   0  0  0  0  0  0  0  0  0  0  0  0
    1.8624   -1.9358    0.2980 S   0  0  0  0  0  0  0  0  0  0  0  0
    0.0708   -2.1433    0.2634 C   0  0  0  0  0  0  0  0  0  0  0  0
   -0.7901   -1.0917    1.4843 S   0  0  0  0  0  0  0  0  0  0  0  0
   -1.9823    0.2400    0.3420 P   0  0  0  0  0  0  0  0  0  0  0  0
   -1.4327    2.1200    0.1590 S   0  0  0  0  0  0  0  0  0  0  0  0
   -3.4107    0.1270    1.0465 O   0  0  0  0  0  0  0  0  0  0  0  0
   -3.7950    0.9958    2.1212 C   0  0  0  0  0  0  0  0  0  0  0  0
   -3.0124    0.6947    3.3827 C   0  0  0  0  0  0  0  0  0  0  0  0
   -2.2115   -0.6645   -0.9370 O   0  0  0  0  0  0  0  0  0  0  0  0
   -3.2731   -0.4559   -1.8946 C   0  0  0  0  0  0  0  0  0  0  0  0
   -3.0056    0.7311   -2.7963 C   0  0  0  0  0  0  0  0  0  0  0  0
    3.0895   -1.6315   -2.7245 H   0  0  0  0  0  0  0  0  0  0  0  0
    3.8544   -0.1915   -3.3984 H   0  0  0  0  0  0  0  0  0  0  0  0
    4.8056   -1.6691   -3.1608 H   0  0  0  0  0  0  0  0  0  0  0  0
    5.3173   -0.0290   -1.3593 H   0  0  0  0  0  0  0  0  0  0  0  0
    4.4853   -1.4643   -0.6880 H   0  0  0  0  0  0  0  0  0  0  0  0
    3.1938    1.9767    1.1914 H   0  0  0  0  0  0  0  0  0  0  0  0
    1.6492    2.3537    2.0073 H   0  0  0  0  0  0  0  0  0  0  0  0
    3.2365   -0.2661    2.2260 H   0  0  0  0  0  0  0  0  0  0  0  0
    3.0303    0.9523    3.4920 H   0  0  0  0  0  0  0  0  0  0  0  0
    1.6404    0.0016    2.9446 H   0  0  0  0  0  0  0  0  0  0  0  0
   -0.1263   -3.1762    0.5364 H   0  0  0  0  0  0  0  0  0  0  0  0
   -0.3002   -1.9089   -0.7336 H   0  0  0  0  0  0  0  0  0  0  0  0
   -3.6307    2.0312    1.8037 H   0  0  0  0  0  0  0  0  0  0  0  0
   -4.8617    0.8076    2.2483 H   0  0  0  0  0  0  0  0  0  0  0  0
   -1.9543    0.8942    3.2083 H   0  0  0  0  0  0  0  0  0  0  0  0
   -3.3639    1.3295    4.1894 H   0  0  0  0  0  0  0  0  0  0  0  0
   -3.1275   -0.3492    3.6619 H   0  0  0  0  0  0  0  0  0  0  0  0
   -3.2838   -1.3880   -2.4625 H   0  0  0  0  0  0  0  0  0  0  0  0
   -4.2124   -0.3385   -1.3493 H   0  0  0  0  0  0  0  0  0  0  0  0
   -2.0198    0.6390   -3.2489 H   0  0  0  0  0  0  0  0  0  0  0  0
   -3.7592    0.7677   -3.5763 H   0  0  0  0  0  0  0  0  0  0  0  0
   -3.0342    1.6584   -2.2271 H   0  0  0  0  0  0  0  0  0  0  0  0
  1  2  1  0  0  0  0
  2  3  1  0  0  0  0
  3  4  2  0  0  0  0
  4  5  2  0  0  0  0
  4  6  2  0  0  0  0
  6  7  1  0  0  0  0
  7  8  1  0  0  0  0
  4  9  1  0  0  0  0
  9 10  1  0  0  0  0
 10 11  1  0  0  0  0
 11 12  1  0  0  0  0
 12 13  2  0  0  0  0
 12 14  2  0  0  0  0
 14 15  1  0  0  0  0
 15 16  1  0  0  0  0
 12 17  2  0  0  0  0
 17 18  1  0  0  0  0
 18 19  1  0  0  0  0
  1 20  1  0  0  0  0
  1 21  1  0  0  0  0
  1 22  1  0  0  0  0
  2 23  1  0  0  0  0
  2 24  1  0  0  0  0
  7 25  1  0  0  0  0
  7 26  1  0  0  0  0
  8 27  1  0  0  0  0
  8 28  1  0  0  0  0
  8 29  1  0  0  0  0
 10 30  1  0  0  0  0
 10 31  1  0  0  0  0
 15 32  1  0  0  0  0
 15 33  1  0  0  0  0
 16 34  1  0  0  0  0
 16 35  1  0  0  0  0
 16 36  1  0  0  0  0
 18 37  1  0  0  0  0
 18 38  1  0  0  0  0
 19 39  1  0  0  0  0
 19 40  1  0  0  0  0
 19 41  1  0  0  0  0
M  END
