 xtb: 6.7.1 (edcfbbe)
          04092507313D

 38 37  0     0  0            999 V2000
    4.2557   -2.1190    0.1029 C   0  0  0  0  0  0  0  0  0  0  0  0
    2.8168   -2.5107   -0.1920 C   0  0  0  0  0  0  0  0  0  0  0  0
    2.0530   -1.3783   -0.6500 O   0  0  0  0  0  0  0  0  0  0  0  0
    2.1067   -1.0652   -1.9364 C   0  0  0  0  0  0  0  0  0  0  0  0
    2.7411   -1.6849   -2.7588 O   0  0  0  0  0  0  0  0  0  0  0  0
    1.2963    0.1704   -2.2677 C   0  0  0  0  0  0  0  0  0  0  0  0
    0.2964    0.5532   -1.1866 C   0  0  0  0  0  0  0  0  0  0  0  0
   -0.1899    1.5008   -1.4435 H   0  0  0  0  0  0  0  0  0  0  0  0
    0.9333    0.7259    0.1793 C   0  0  0  0  0  0  0  0  0  0  0  0
    0.4263    0.2911    1.1935 O   0  0  0  0  0  0  0  0  0  0  0  0
    2.0363    1.4231    0.1231 O   0  0  0  0  0  0  0  0  0  0  0  0
    2.6882    1.7618    1.3653 C   0  0  0  0  0  0  0  0  0  0  0  0
    2.1008    3.0391    1.9425 C   0  0  0  0  0  0  0  0  0  0  0  0
   -1.0196   -0.7030   -1.0250 S   0  0  0  0  0  0  0  0  0  0  0  0
   -2.1160    0.2033    0.5570 P   0  0  0  0  0  0  0  0  0  0  0  0
   -1.9668    2.1446    0.7608 S   0  0  0  0  0  0  0  0  0  0  0  0
   -3.6079   -0.2435    0.1448 O   0  0  0  0  0  0  0  0  0  0  0  0
   -4.2620    0.3094   -0.9994 C   0  0  0  0  0  0  0  0  0  0  0  0
   -1.9889   -0.6258    1.8953 O   0  0  0  0  0  0  0  0  0  0  0  0
   -2.1689   -2.0536    1.9373 C   0  0  0  0  0  0  0  0  0  0  0  0
    4.7862   -2.9808    0.4943 H   0  0  0  0  0  0  0  0  0  0  0  0
    4.7457   -1.7865   -0.8092 H   0  0  0  0  0  0  0  0  0  0  0  0
    4.2858   -1.3173    0.8363 H   0  0  0  0  0  0  0  0  0  0  0  0
    2.2996   -2.8412    0.7094 H   0  0  0  0  0  0  0  0  0  0  0  0
    2.7761   -3.2862   -0.9620 H   0  0  0  0  0  0  0  0  0  0  0  0
    0.7872   -0.0033   -3.2164 H   0  0  0  0  0  0  0  0  0  0  0  0
    2.0021    0.9936   -2.4058 H   0  0  0  0  0  0  0  0  0  0  0  0
    2.5659    0.9280    2.0618 H   0  0  0  0  0  0  0  0  0  0  0  0
    3.7365    1.8898    1.0954 H   0  0  0  0  0  0  0  0  0  0  0  0
    2.6158    3.2894    2.8639 H   0  0  0  0  0  0  0  0  0  0  0  0
    2.2093    3.8564    1.2352 H   0  0  0  0  0  0  0  0  0  0  0  0
    1.0418    2.9023    2.1555 H   0  0  0  0  0  0  0  0  0  0  0  0
   -5.3034    0.0098   -0.9160 H   0  0  0  0  0  0  0  0  0  0  0  0
   -3.8177   -0.0916   -1.9105 H   0  0  0  0  0  0  0  0  0  0  0  0
   -4.1768    1.3974   -0.9894 H   0  0  0  0  0  0  0  0  0  0  0  0
   -1.5081   -2.5346    1.2157 H   0  0  0  0  0  0  0  0  0  0  0  0
   -3.2061   -2.3024    1.7185 H   0  0  0  0  0  0  0  0  0  0  0  0
   -1.9037   -2.3414    2.9513 H   0  0  0  0  0  0  0  0  0  0  0  0
  1  2  1  0  0  0  0
  2  3  1  0  0  0  0
  3  4  1  0  0  0  0
  4  5  2  0  0  0  0
  4  6  1  0  0  0  0
  6  7  1  0  0  0  0
  7  8  1  0  0  0  0
  7  9  1  0  0  0  0
  9 10  2  0  0  0  0
  9 11  4  0  0  0  0
 11 12  1  0  0  0  0
 12 13  1  0  0  0  0
  7 14  1  0  0  0  0
 14 15  1  0  0  0  0
 15 16  2  0  0  0  0
 15 17  1  0  0  0  0
 17 18  1  0  0  0  0
 15 19  2  0  0  0  0
 19 20  1  0  0  0  0
  1 21  1  0  0  0  0
  1 22  1  0  0  0  0
  1 23  1  0  0  0  0
  2 24  1  0  0  0  0
  2 25  1  0  0  0  0
  6 26  1  0  0  0  0
  6 27  1  0  0  0  0
 12 28  1  0  0  0  0
 12 29  1  0  0  0  0
 13 30  1  0  0  0  0
 13 31  1  0  0  0  0
 13 32  1  0  0  0  0
 18 33  1  0  0  0  0
 18 34  1  0  0  0  0
 18 35  1  0  0  0  0
 20 36  1  0  0  0  0
 20 37  1  0  0  0  0
 20 38  1  0  0  0  0
M  END
