 xtb: 6.7.1 (edcfbbe)
          04032519413D

  9  8  0     0  0            999 V2000
   -1.6972    0.4088   -0.0195 C   0  0  0  0  0  0  0  0  0  0  0  0
   -0.6205   -0.6537    0.0727 C   0  0  0  0  0  0  0  0  0  0  0  0
    1.0416    0.1392   -0.0268 S   0  0  0  0  0  0  0  0  0  0  0  0
   -2.6783   -0.0558    0.0394 H   0  0  0  0  0  0  0  0  0  0  0  0
   -1.5969    1.1233    0.7948 H   0  0  0  0  0  0  0  0  0  0  0  0
   -1.6194    0.9480   -0.9613 H   0  0  0  0  0  0  0  0  0  0  0  0
   -0.6912   -1.3589   -0.7540 H   0  0  0  0  0  0  0  0  0  0  0  0
   -0.6690   -1.1824    1.0234 H   0  0  0  0  0  0  0  0  0  0  0  0
    1.7388   -0.9844    0.0782 H   0  0  0  0  0  0  0  0  0  0  0  0
  1  2  1  0  0  0  0
  2  3  1  0  0  0  0
  1  4  1  0  0  0  0
  1  5  1  0  0  0  0
  1  6  1  0  0  0  0
  2  7  1  0  0  0  0
  2  8  1  0  0  0  0
  3  9  1  0  0  0  0
M  END
