 xtb: 6.7.1 (edcfbbe)
          04092505213D

 41 40  0     0  0            999 V2000
    5.2787   -0.8872   -1.9588 C   0  0  0  0  0  0  0  0  0  0  0  0
    5.0024   -0.1635   -0.6559 C   0  0  0  0  0  0  0  0  0  0  0  0
    3.7358   -0.5915   -0.1035 O   0  0  0  0  0  0  0  0  0  0  0  0
    2.4176    0.2670   -0.2762 P   0  0  0  0  0  0  0  0  0  0  0  0
    2.0393    0.9169   -2.0920 S   0  0  0  0  0  0  0  0  0  0  0  0
    2.6813    1.4141    0.7952 O   0  0  0  0  0  0  0  0  0  0  0  0
    1.8623    2.5845    0.9578 C   0  0  0  0  0  0  0  0  0  0  0  0
    0.9474    2.4315    2.1564 C   0  0  0  0  0  0  0  0  0  0  0  0
    1.0816   -1.0968    0.6013 S   0  0  0  0  0  0  0  0  0  0  0  0
    0.1553   -1.5997   -0.8968 C   0  0  0  0  0  0  0  0  0  0  0  0
   -1.5669   -1.9484   -0.5094 S   0  0  0  0  0  0  0  0  0  0  0  0
   -2.1035   -0.0224    0.2374 P   0  0  0  0  0  0  0  0  0  0  0  0
   -1.2810    1.5067   -0.6717 S   0  0  0  0  0  0  0  0  0  0  0  0
   -1.8110    0.0026    1.7812 O   0  0  0  0  0  0  0  0  0  0  0  0
   -1.9199   -1.1115    2.7040 C   0  0  0  0  0  0  0  0  0  0  0  0
   -3.2827   -1.7669    2.6779 C   0  0  0  0  0  0  0  0  0  0  0  0
   -3.6883   -0.0485    0.1742 O   0  0  0  0  0  0  0  0  0  0  0  0
   -4.3927    0.0581   -1.0789 C   0  0  0  0  0  0  0  0  0  0  0  0
   -5.8350    0.4064   -0.7720 C   0  0  0  0  0  0  0  0  0  0  0  0
    4.5316   -0.6169   -2.7021 H   0  0  0  0  0  0  0  0  0  0  0  0
    6.2609   -0.6052   -2.3243 H   0  0  0  0  0  0  0  0  0  0  0  0
    5.2461   -1.9614   -1.8013 H   0  0  0  0  0  0  0  0  0  0  0  0
    4.9855    0.9198   -0.8021 H   0  0  0  0  0  0  0  0  0  0  0  0
    5.7380   -0.4183    0.1087 H   0  0  0  0  0  0  0  0  0  0  0  0
    2.5691    3.4038    1.1030 H   0  0  0  0  0  0  0  0  0  0  0  0
    1.2886    2.7575    0.0408 H   0  0  0  0  0  0  0  0  0  0  0  0
    1.5282    2.1681    3.0357 H   0  0  0  0  0  0  0  0  0  0  0  0
    0.4296    3.3697    2.3280 H   0  0  0  0  0  0  0  0  0  0  0  0
    0.2067    1.6550    1.9748 H   0  0  0  0  0  0  0  0  0  0  0  0
    0.5764   -2.5211   -1.2911 H   0  0  0  0  0  0  0  0  0  0  0  0
    0.2182   -0.7873   -1.6270 H   0  0  0  0  0  0  0  0  0  0  0  0
   -1.1287   -1.8261    2.4594 H   0  0  0  0  0  0  0  0  0  0  0  0
   -1.7121   -0.6498    3.6703 H   0  0  0  0  0  0  0  0  0  0  0  0
   -4.0595   -1.0240    2.8383 H   0  0  0  0  0  0  0  0  0  0  0  0
   -3.4511   -2.2537    1.7195 H   0  0  0  0  0  0  0  0  0  0  0  0
   -3.3293   -2.5127    3.4654 H   0  0  0  0  0  0  0  0  0  0  0  0
   -3.9127    0.8331   -1.6863 H   0  0  0  0  0  0  0  0  0  0  0  0
   -4.3140   -0.9015   -1.5969 H   0  0  0  0  0  0  0  0  0  0  0  0
   -6.2806   -0.3681   -0.1550 H   0  0  0  0  0  0  0  0  0  0  0  0
   -5.8848    1.3530   -0.2414 H   0  0  0  0  0  0  0  0  0  0  0  0
   -6.3874    0.4879   -1.7024 H   0  0  0  0  0  0  0  0  0  0  0  0
  1  2  1  0  0  0  0
  2  3  1  0  0  0  0
  3  4  2  0  0  0  0
  4  5  2  0  0  0  0
  4  6  2  0  0  0  0
  6  7  1  0  0  0  0
  7  8  1  0  0  0  0
  4  9  1  0  0  0  0
  9 10  1  0  0  0  0
 10 11  1  0  0  0  0
 11 12  1  0  0  0  0
 12 13  2  0  0  0  0
 12 14  2  0  0  0  0
 14 15  1  0  0  0  0
 15 16  1  0  0  0  0
 12 17  2  0  0  0  0
 17 18  1  0  0  0  0
 18 19  1  0  0  0  0
  1 20  1  0  0  0  0
  1 21  1  0  0  0  0
  1 22  1  0  0  0  0
  2 23  1  0  0  0  0
  2 24  1  0  0  0  0
  7 25  1  0  0  0  0
  7 26  1  0  0  0  0
  8 27  1  0  0  0  0
  8 28  1  0  0  0  0
  8 29  1  0  0  0  0
 10 30  1  0  0  0  0
 10 31  1  0  0  0  0
 15 32  1  0  0  0  0
 15 33  1  0  0  0  0
 16 34  1  0  0  0  0
 16 35  1  0  0  0  0
 16 36  1  0  0  0  0
 18 37  1  0  0  0  0
 18 38  1  0  0  0  0
 19 39  1  0  0  0  0
 19 40  1  0  0  0  0
 19 41  1  0  0  0  0
M  END
