 xtb: 6.7.1 (edcfbbe)
          04092505203D

 41 40  0     0  0            999 V2000
    3.3590   -0.8736   -2.8992 C   0  0  0  0  0  0  0  0  0  0  0  0
    4.1331   -1.0628   -1.6115 C   0  0  0  0  0  0  0  0  0  0  0  0
    3.6399   -0.2474   -0.5315 O   0  0  0  0  0  0  0  0  0  0  0  0
    2.1180   -0.1105   -0.0965 P   0  0  0  0  0  0  0  0  0  0  0  0
    1.0513    1.1522   -1.1657 S   0  0  0  0  0  0  0  0  0  0  0  0
    2.2507    0.2928    1.4318 O   0  0  0  0  0  0  0  0  0  0  0  0
    2.3184    1.6602    1.8685 C   0  0  0  0  0  0  0  0  0  0  0  0
    3.6548    2.2814    1.5249 C   0  0  0  0  0  0  0  0  0  0  0  0
    1.5159   -2.1177    0.0853 S   0  0  0  0  0  0  0  0  0  0  0  0
   -0.1759   -1.9178    0.7065 C   0  0  0  0  0  0  0  0  0  0  0  0
   -1.3634   -1.3687   -0.5552 S   0  0  0  0  0  0  0  0  0  0  0  0
   -2.0509    0.4572    0.3106 P   0  0  0  0  0  0  0  0  0  0  0  0
   -1.1432    1.0008    1.9594 S   0  0  0  0  0  0  0  0  0  0  0  0
   -3.6260    0.2521    0.4739 O   0  0  0  0  0  0  0  0  0  0  0  0
   -4.2337   -0.3349    1.6358 C   0  0  0  0  0  0  0  0  0  0  0  0
   -3.8713   -1.7959    1.8104 C   0  0  0  0  0  0  0  0  0  0  0  0
   -2.0123    1.5735   -0.7954 O   0  0  0  0  0  0  0  0  0  0  0  0
   -2.9117    1.6835   -1.9248 C   0  0  0  0  0  0  0  0  0  0  0  0
   -2.7987    0.5059   -2.8686 C   0  0  0  0  0  0  0  0  0  0  0  0
    2.3297   -1.2073   -2.7698 H   0  0  0  0  0  0  0  0  0  0  0  0
    3.3467    0.1758   -3.1851 H   0  0  0  0  0  0  0  0  0  0  0  0
    3.8232   -1.4570   -3.6877 H   0  0  0  0  0  0  0  0  0  0  0  0
    5.1716   -0.7443   -1.7190 H   0  0  0  0  0  0  0  0  0  0  0  0
    4.0961   -2.1066   -1.2876 H   0  0  0  0  0  0  0  0  0  0  0  0
    1.4963    2.2185    1.4066 H   0  0  0  0  0  0  0  0  0  0  0  0
    2.1502    1.6036    2.9450 H   0  0  0  0  0  0  0  0  0  0  0  0
    3.6994    3.2878    1.9291 H   0  0  0  0  0  0  0  0  0  0  0  0
    4.4618    1.6839    1.9399 H   0  0  0  0  0  0  0  0  0  0  0  0
    3.7691    2.3244    0.4422 H   0  0  0  0  0  0  0  0  0  0  0  0
   -0.1780   -1.1979    1.5302 H   0  0  0  0  0  0  0  0  0  0  0  0
   -0.4726   -2.9095    1.0382 H   0  0  0  0  0  0  0  0  0  0  0  0
   -3.9292    0.2440    2.5134 H   0  0  0  0  0  0  0  0  0  0  0  0
   -5.3026   -0.2051    1.4592 H   0  0  0  0  0  0  0  0  0  0  0  0
   -4.4756   -2.2189    2.6065 H   0  0  0  0  0  0  0  0  0  0  0  0
   -4.0513   -2.3446    0.8896 H   0  0  0  0  0  0  0  0  0  0  0  0
   -2.8208   -1.8883    2.0810 H   0  0  0  0  0  0  0  0  0  0  0  0
   -3.9289    1.7883   -1.5419 H   0  0  0  0  0  0  0  0  0  0  0  0
   -2.5908    2.6110   -2.4015 H   0  0  0  0  0  0  0  0  0  0  0  0
   -3.1489   -0.4044   -2.3839 H   0  0  0  0  0  0  0  0  0  0  0  0
   -3.4052    0.6956   -3.7486 H   0  0  0  0  0  0  0  0  0  0  0  0
   -1.7626    0.3679   -3.1692 H   0  0  0  0  0  0  0  0  0  0  0  0
  1  2  1  0  0  0  0
  2  3  1  0  0  0  0
  3  4  2  0  0  0  0
  4  5  2  0  0  0  0
  4  6  2  0  0  0  0
  6  7  1  0  0  0  0
  7  8  1  0  0  0  0
  4  9  1  0  0  0  0
  9 10  1  0  0  0  0
 10 11  1  0  0  0  0
 11 12  1  0  0  0  0
 12 13  2  0  0  0  0
 12 14  2  0  0  0  0
 14 15  1  0  0  0  0
 15 16  1  0  0  0  0
 12 17  2  0  0  0  0
 17 18  1  0  0  0  0
 18 19  1  0  0  0  0
  1 20  1  0  0  0  0
  1 21  1  0  0  0  0
  1 22  1  0  0  0  0
  2 23  1  0  0  0  0
  2 24  1  0  0  0  0
  7 25  1  0  0  0  0
  7 26  1  0  0  0  0
  8 27  1  0  0  0  0
  8 28  1  0  0  0  0
  8 29  1  0  0  0  0
 10 30  1  0  0  0  0
 10 31  1  0  0  0  0
 15 32  1  0  0  0  0
 15 33  1  0  0  0  0
 16 34  1  0  0  0  0
 16 35  1  0  0  0  0
 16 36  1  0  0  0  0
 18 37  1  0  0  0  0
 18 38  1  0  0  0  0
 19 39  1  0  0  0  0
 19 40  1  0  0  0  0
 19 41  1  0  0  0  0
M  END
