 xtb: 6.7.1 (edcfbbe)
          04092505213D

 41 40  0     0  0            999 V2000
    4.1940   -0.5668   -1.8891 C   0  0  0  0  0  0  0  0  0  0  0  0
    4.3744    0.4969   -0.8262 C   0  0  0  0  0  0  0  0  0  0  0  0
    3.1309    0.8677   -0.1789 O   0  0  0  0  0  0  0  0  0  0  0  0
    2.2420   -0.0832    0.7174 P   0  0  0  0  0  0  0  0  0  0  0  0
    1.3286    0.8902    2.1519 S   0  0  0  0  0  0  0  0  0  0  0  0
    3.2787   -1.1773    1.2171 O   0  0  0  0  0  0  0  0  0  0  0  0
    3.0105   -2.0142    2.3557 C   0  0  0  0  0  0  0  0  0  0  0  0
    1.8864   -2.9916    2.0833 C   0  0  0  0  0  0  0  0  0  0  0  0
    0.9816   -1.1380   -0.6578 S   0  0  0  0  0  0  0  0  0  0  0  0
    0.4163    0.2887   -1.6207 C   0  0  0  0  0  0  0  0  0  0  0  0
   -0.6412    1.4375   -0.7058 S   0  0  0  0  0  0  0  0  0  0  0  0
   -2.4979    0.3846   -0.8453 P   0  0  0  0  0  0  0  0  0  0  0  0
   -2.5513   -0.9718   -2.2543 S   0  0  0  0  0  0  0  0  0  0  0  0
   -3.6060    1.4702   -1.1157 O   0  0  0  0  0  0  0  0  0  0  0  0
   -4.1288    2.4182   -0.1541 C   0  0  0  0  0  0  0  0  0  0  0  0
   -3.0768    3.3896    0.3378 C   0  0  0  0  0  0  0  0  0  0  0  0
   -2.8645   -0.0496    0.6433 O   0  0  0  0  0  0  0  0  0  0  0  0
   -2.0835   -0.8958    1.5003 C   0  0  0  0  0  0  0  0  0  0  0  0
   -2.0911   -2.3416    1.0461 C   0  0  0  0  0  0  0  0  0  0  0  0
    5.1522   -0.7499   -2.3656 H   0  0  0  0  0  0  0  0  0  0  0  0
    3.8402   -1.4930   -1.4420 H   0  0  0  0  0  0  0  0  0  0  0  0
    3.4817   -0.2453   -2.6452 H   0  0  0  0  0  0  0  0  0  0  0  0
    4.7207    1.4396   -1.2532 H   0  0  0  0  0  0  0  0  0  0  0  0
    5.0705    0.1596   -0.0565 H   0  0  0  0  0  0  0  0  0  0  0  0
    3.9580   -2.5243    2.5344 H   0  0  0  0  0  0  0  0  0  0  0  0
    2.7642   -1.3717    3.2071 H   0  0  0  0  0  0  0  0  0  0  0  0
    2.0925   -3.5706    1.1868 H   0  0  0  0  0  0  0  0  0  0  0  0
    1.7780   -3.6619    2.9297 H   0  0  0  0  0  0  0  0  0  0  0  0
    0.9540   -2.4473    1.9400 H   0  0  0  0  0  0  0  0  0  0  0  0
   -0.1474   -0.1241   -2.4592 H   0  0  0  0  0  0  0  0  0  0  0  0
    1.2717    0.8696   -1.9565 H   0  0  0  0  0  0  0  0  0  0  0  0
   -4.9141    2.9285   -0.7139 H   0  0  0  0  0  0  0  0  0  0  0  0
   -4.5648    1.8592    0.6757 H   0  0  0  0  0  0  0  0  0  0  0  0
   -2.5978    3.8882   -0.5013 H   0  0  0  0  0  0  0  0  0  0  0  0
   -3.5487    4.1328    0.9730 H   0  0  0  0  0  0  0  0  0  0  0  0
   -2.3135    2.8700    0.9159 H   0  0  0  0  0  0  0  0  0  0  0  0
   -1.0645   -0.4981    1.5606 H   0  0  0  0  0  0  0  0  0  0  0  0
   -2.5619   -0.7850    2.4756 H   0  0  0  0  0  0  0  0  0  0  0  0
   -1.6132   -2.9570    1.8017 H   0  0  0  0  0  0  0  0  0  0  0  0
   -3.1144   -2.6796    0.9035 H   0  0  0  0  0  0  0  0  0  0  0  0
   -1.5552   -2.4537    0.1054 H   0  0  0  0  0  0  0  0  0  0  0  0
  1  2  1  0  0  0  0
  2  3  1  0  0  0  0
  3  4  2  0  0  0  0
  4  5  2  0  0  0  0
  4  6  2  0  0  0  0
  6  7  1  0  0  0  0
  7  8  1  0  0  0  0
  4  9  1  0  0  0  0
  9 10  1  0  0  0  0
 10 11  1  0  0  0  0
 11 12  1  0  0  0  0
 12 13  2  0  0  0  0
 12 14  2  0  0  0  0
 14 15  1  0  0  0  0
 15 16  1  0  0  0  0
 12 17  2  0  0  0  0
 17 18  1  0  0  0  0
 18 19  1  0  0  0  0
  1 20  1  0  0  0  0
  1 21  1  0  0  0  0
  1 22  1  0  0  0  0
  2 23  1  0  0  0  0
  2 24  1  0  0  0  0
  7 25  1  0  0  0  0
  7 26  1  0  0  0  0
  8 27  1  0  0  0  0
  8 28  1  0  0  0  0
  8 29  1  0  0  0  0
 10 30  1  0  0  0  0
 10 31  1  0  0  0  0
 15 32  1  0  0  0  0
 15 33  1  0  0  0  0
 16 34  1  0  0  0  0
 16 35  1  0  0  0  0
 16 36  1  0  0  0  0
 18 37  1  0  0  0  0
 18 38  1  0  0  0  0
 19 39  1  0  0  0  0
 19 40  1  0  0  0  0
 19 41  1  0  0  0  0
M  END
