 xtb: 6.7.1 (edcfbbe)
          04092505203D

 41 40  0     0  0            999 V2000
    4.7060   -1.5153    0.0137 C   0  0  0  0  0  0  0  0  0  0  0  0
    4.4761   -0.2719   -0.8236 C   0  0  0  0  0  0  0  0  0  0  0  0
    3.5195    0.6079   -0.2029 O   0  0  0  0  0  0  0  0  0  0  0  0
    1.9855    0.6473   -0.6308 P   0  0  0  0  0  0  0  0  0  0  0  0
    1.7005    0.7034   -2.5679 S   0  0  0  0  0  0  0  0  0  0  0  0
    1.5036    1.9464    0.1189 O   0  0  0  0  0  0  0  0  0  0  0  0
    2.0064    2.4222    1.3914 C   0  0  0  0  0  0  0  0  0  0  0  0
    1.6923    1.4689    2.5244 C   0  0  0  0  0  0  0  0  0  0  0  0
    1.1565   -1.0639    0.3261 S   0  0  0  0  0  0  0  0  0  0  0  0
    0.0246   -1.6850   -0.9559 C   0  0  0  0  0  0  0  0  0  0  0  0
   -1.6511   -1.9605   -0.3384 S   0  0  0  0  0  0  0  0  0  0  0  0
   -2.0816    0.0310    0.2657 P   0  0  0  0  0  0  0  0  0  0  0  0
   -1.4393    1.4617   -0.9103 S   0  0  0  0  0  0  0  0  0  0  0  0
   -1.5365    0.1795    1.7391 O   0  0  0  0  0  0  0  0  0  0  0  0
   -1.9710   -0.6778    2.8345 C   0  0  0  0  0  0  0  0  0  0  0  0
   -0.8777   -1.6526    3.2223 C   0  0  0  0  0  0  0  0  0  0  0  0
   -3.6537    0.0024    0.5103 O   0  0  0  0  0  0  0  0  0  0  0  0
   -4.6137    0.2690   -0.5268 C   0  0  0  0  0  0  0  0  0  0  0  0
   -4.5983   -0.7844   -1.6154 C   0  0  0  0  0  0  0  0  0  0  0  0
    5.0208   -1.2358    1.0152 H   0  0  0  0  0  0  0  0  0  0  0  0
    3.7971   -2.1070    0.0838 H   0  0  0  0  0  0  0  0  0  0  0  0
    5.4840   -2.1117   -0.4519 H   0  0  0  0  0  0  0  0  0  0  0  0
    4.1246   -0.5207   -1.8303 H   0  0  0  0  0  0  0  0  0  0  0  0
    5.3873    0.3248   -0.8997 H   0  0  0  0  0  0  0  0  0  0  0  0
    3.0817    2.5843    1.2948 H   0  0  0  0  0  0  0  0  0  0  0  0
    1.4934    3.3776    1.5146 H   0  0  0  0  0  0  0  0  0  0  0  0
    2.2322    0.5326    2.3894 H   0  0  0  0  0  0  0  0  0  0  0  0
    1.9922    1.9223    3.4641 H   0  0  0  0  0  0  0  0  0  0  0  0
    0.6245    1.2622    2.5473 H   0  0  0  0  0  0  0  0  0  0  0  0
    0.3806   -2.6542   -1.2962 H   0  0  0  0  0  0  0  0  0  0  0  0
    0.0114   -0.9619   -1.7763 H   0  0  0  0  0  0  0  0  0  0  0  0
   -2.1954    0.0135    3.6483 H   0  0  0  0  0  0  0  0  0  0  0  0
   -2.8818   -1.1986    2.5348 H   0  0  0  0  0  0  0  0  0  0  0  0
    0.0344   -1.1200    3.4748 H   0  0  0  0  0  0  0  0  0  0  0  0
   -1.2106   -2.2220    4.0843 H   0  0  0  0  0  0  0  0  0  0  0  0
   -0.6628   -2.3370    2.4056 H   0  0  0  0  0  0  0  0  0  0  0  0
   -5.5668    0.2865    0.0039 H   0  0  0  0  0  0  0  0  0  0  0  0
   -4.4018    1.2576   -0.9455 H   0  0  0  0  0  0  0  0  0  0  0  0
   -4.6846   -1.7784   -1.1839 H   0  0  0  0  0  0  0  0  0  0  0  0
   -5.4287   -0.6103   -2.2921 H   0  0  0  0  0  0  0  0  0  0  0  0
   -3.6687   -0.7238   -2.1796 H   0  0  0  0  0  0  0  0  0  0  0  0
  1  2  1  0  0  0  0
  2  3  1  0  0  0  0
  3  4  2  0  0  0  0
  4  5  2  0  0  0  0
  4  6  2  0  0  0  0
  6  7  1  0  0  0  0
  7  8  1  0  0  0  0
  4  9  1  0  0  0  0
  9 10  1  0  0  0  0
 10 11  1  0  0  0  0
 11 12  1  0  0  0  0
 12 13  2  0  0  0  0
 12 14  2  0  0  0  0
 14 15  1  0  0  0  0
 15 16  1  0  0  0  0
 12 17  2  0  0  0  0
 17 18  1  0  0  0  0
 18 19  1  0  0  0  0
  1 20  1  0  0  0  0
  1 21  1  0  0  0  0
  1 22  1  0  0  0  0
  2 23  1  0  0  0  0
  2 24  1  0  0  0  0
  7 25  1  0  0  0  0
  7 26  1  0  0  0  0
  8 27  1  0  0  0  0
  8 28  1  0  0  0  0
  8 29  1  0  0  0  0
 10 30  1  0  0  0  0
 10 31  1  0  0  0  0
 15 32  1  0  0  0  0
 15 33  1  0  0  0  0
 16 34  1  0  0  0  0
 16 35  1  0  0  0  0
 16 36  1  0  0  0  0
 18 37  1  0  0  0  0
 18 38  1  0  0  0  0
 19 39  1  0  0  0  0
 19 40  1  0  0  0  0
 19 41  1  0  0  0  0
M  END
