 xtb: 6.7.1 (edcfbbe)
          04092505213D

 41 40  0     0  0            999 V2000
    5.3484   -0.1018   -2.1794 C   0  0  0  0  0  0  0  0  0  0  0  0
    4.0135   -0.7567   -1.8902 C   0  0  0  0  0  0  0  0  0  0  0  0
    3.3342    0.0423   -0.8976 O   0  0  0  0  0  0  0  0  0  0  0  0
    1.7895   -0.1614   -0.6061 P   0  0  0  0  0  0  0  0  0  0  0  0
    0.6153   -0.0693   -2.1705 S   0  0  0  0  0  0  0  0  0  0  0  0
    1.4816    0.9630    0.4465 O   0  0  0  0  0  0  0  0  0  0  0  0
    2.3761    1.4696    1.4699 C   0  0  0  0  0  0  0  0  0  0  0  0
    2.7138    0.4274    2.5149 C   0  0  0  0  0  0  0  0  0  0  0  0
    1.7188   -2.0526    0.3634 S   0  0  0  0  0  0  0  0  0  0  0  0
   -0.0813   -2.1986    0.4024 C   0  0  0  0  0  0  0  0  0  0  0  0
   -0.8635   -1.0297    1.5664 S   0  0  0  0  0  0  0  0  0  0  0  0
   -2.0032    0.2897    0.3543 P   0  0  0  0  0  0  0  0  0  0  0  0
   -1.3560    2.1226    0.0539 S   0  0  0  0  0  0  0  0  0  0  0  0
   -3.4274    0.2945    1.0747 O   0  0  0  0  0  0  0  0  0  0  0  0
   -3.7545    1.2430    2.0999 C   0  0  0  0  0  0  0  0  0  0  0  0
   -2.9855    0.9660    3.3752 C   0  0  0  0  0  0  0  0  0  0  0  0
   -2.2920   -0.6759   -0.8663 O   0  0  0  0  0  0  0  0  0  0  0  0
   -3.3705   -0.4892   -1.8098 C   0  0  0  0  0  0  0  0  0  0  0  0
   -3.1175    0.6727   -2.7473 C   0  0  0  0  0  0  0  0  0  0  0  0
    5.1964    0.9029   -2.5643 H   0  0  0  0  0  0  0  0  0  0  0  0
    5.9405   -0.0462   -1.2707 H   0  0  0  0  0  0  0  0  0  0  0  0
    5.8793   -0.6917   -2.9191 H   0  0  0  0  0  0  0  0  0  0  0  0
    4.1394   -1.7642   -1.4853 H   0  0  0  0  0  0  0  0  0  0  0  0
    3.3850   -0.8060   -2.7853 H   0  0  0  0  0  0  0  0  0  0  0  0
    3.2743    1.8458    0.9776 H   0  0  0  0  0  0  0  0  0  0  0  0
    1.8075    2.2999    1.8933 H   0  0  0  0  0  0  0  0  0  0  0  0
    3.3275   -0.3610    2.0845 H   0  0  0  0  0  0  0  0  0  0  0  0
    3.2648    0.9059    3.3185 H   0  0  0  0  0  0  0  0  0  0  0  0
    1.8046   -0.0132    2.9189 H   0  0  0  0  0  0  0  0  0  0  0  0
   -0.3020   -3.2004    0.7603 H   0  0  0  0  0  0  0  0  0  0  0  0
   -0.4789   -2.0289   -0.5969 H   0  0  0  0  0  0  0  0  0  0  0  0
   -3.5306    2.2477    1.7251 H   0  0  0  0  0  0  0  0  0  0  0  0
   -4.8299    1.1261    2.2387 H   0  0  0  0  0  0  0  0  0  0  0  0
   -1.9181    1.0901    3.1887 H   0  0  0  0  0  0  0  0  0  0  0  0
   -3.2942    1.6651    4.1454 H   0  0  0  0  0  0  0  0  0  0  0  0
   -3.1626   -0.0517    3.7126 H   0  0  0  0  0  0  0  0  0  0  0  0
   -3.3936   -1.4362   -2.3522 H   0  0  0  0  0  0  0  0  0  0  0  0
   -4.2985   -0.3544   -1.2497 H   0  0  0  0  0  0  0  0  0  0  0  0
   -2.1415    0.5648   -3.2175 H   0  0  0  0  0  0  0  0  0  0  0  0
   -3.8866    0.6920   -3.5127 H   0  0  0  0  0  0  0  0  0  0  0  0
   -3.1316    1.6144   -2.2014 H   0  0  0  0  0  0  0  0  0  0  0  0
  1  2  1  0  0  0  0
  2  3  1  0  0  0  0
  3  4  2  0  0  0  0
  4  5  2  0  0  0  0
  4  6  2  0  0  0  0
  6  7  1  0  0  0  0
  7  8  1  0  0  0  0
  4  9  1  0  0  0  0
  9 10  1  0  0  0  0
 10 11  1  0  0  0  0
 11 12  1  0  0  0  0
 12 13  2  0  0  0  0
 12 14  2  0  0  0  0
 14 15  1  0  0  0  0
 15 16  1  0  0  0  0
 12 17  2  0  0  0  0
 17 18  1  0  0  0  0
 18 19  1  0  0  0  0
  1 20  1  0  0  0  0
  1 21  1  0  0  0  0
  1 22  1  0  0  0  0
  2 23  1  0  0  0  0
  2 24  1  0  0  0  0
  7 25  1  0  0  0  0
  7 26  1  0  0  0  0
  8 27  1  0  0  0  0
  8 28  1  0  0  0  0
  8 29  1  0  0  0  0
 10 30  1  0  0  0  0
 10 31  1  0  0  0  0
 15 32  1  0  0  0  0
 15 33  1  0  0  0  0
 16 34  1  0  0  0  0
 16 35  1  0  0  0  0
 16 36  1  0  0  0  0
 18 37  1  0  0  0  0
 18 38  1  0  0  0  0
 19 39  1  0  0  0  0
 19 40  1  0  0  0  0
 19 41  1  0  0  0  0
M  END
