 xtb: 6.7.1 (edcfbbe)
          04092505213D

 41 40  0     0  0            999 V2000
    3.7788    1.2614   -2.0552 C   0  0  0  0  0  0  0  0  0  0  0  0
    2.6735    0.2272   -2.1449 C   0  0  0  0  0  0  0  0  0  0  0  0
    2.7244   -0.6644   -1.0124 O   0  0  0  0  0  0  0  0  0  0  0  0
    1.8273   -0.5212    0.2881 P   0  0  0  0  0  0  0  0  0  0  0  0
    1.5379    1.3158    0.9219 S   0  0  0  0  0  0  0  0  0  0  0  0
    2.5579   -1.4590    1.3337 O   0  0  0  0  0  0  0  0  0  0  0  0
    3.5526   -0.9645    2.2531 C   0  0  0  0  0  0  0  0  0  0  0  0
    4.8456   -0.6226    1.5437 C   0  0  0  0  0  0  0  0  0  0  0  0
    0.2397   -1.8415   -0.1794 S   0  0  0  0  0  0  0  0  0  0  0  0
   -0.7243   -1.7650    1.3525 C   0  0  0  0  0  0  0  0  0  0  0  0
   -1.4548   -0.1326    1.7135 S   0  0  0  0  0  0  0  0  0  0  0  0
   -2.1353    0.4202   -0.2053 P   0  0  0  0  0  0  0  0  0  0  0  0
   -0.9574    1.0191   -1.6656 S   0  0  0  0  0  0  0  0  0  0  0  0
   -3.2392    1.5163    0.1324 O   0  0  0  0  0  0  0  0  0  0  0  0
   -2.9429    2.9210    0.1954 C   0  0  0  0  0  0  0  0  0  0  0  0
   -2.0469    3.2545    1.3708 C   0  0  0  0  0  0  0  0  0  0  0  0
   -3.0161   -0.8568   -0.5078 O   0  0  0  0  0  0  0  0  0  0  0  0
   -3.5169   -1.1665   -1.8298 C   0  0  0  0  0  0  0  0  0  0  0  0
   -2.6741   -2.2496   -2.4728 C   0  0  0  0  0  0  0  0  0  0  0  0
    4.7444    0.7714   -1.9644 H   0  0  0  0  0  0  0  0  0  0  0  0
    3.7662    1.8715   -2.9525 H   0  0  0  0  0  0  0  0  0  0  0  0
    3.6198    1.9039   -1.1914 H   0  0  0  0  0  0  0  0  0  0  0  0
    2.8013   -0.4211   -3.0135 H   0  0  0  0  0  0  0  0  0  0  0  0
    1.6931    0.7089   -2.1944 H   0  0  0  0  0  0  0  0  0  0  0  0
    3.1468   -0.0846    2.7631 H   0  0  0  0  0  0  0  0  0  0  0  0
    3.6830   -1.7821    2.9632 H   0  0  0  0  0  0  0  0  0  0  0  0
    5.6011   -0.3588    2.2771 H   0  0  0  0  0  0  0  0  0  0  0  0
    5.1874   -1.4721    0.9582 H   0  0  0  0  0  0  0  0  0  0  0  0
    4.6871    0.2236    0.8772 H   0  0  0  0  0  0  0  0  0  0  0  0
   -0.0919   -2.0086    2.2037 H   0  0  0  0  0  0  0  0  0  0  0  0
   -1.5246   -2.4922    1.2354 H   0  0  0  0  0  0  0  0  0  0  0  0
   -2.4692    3.2190   -0.7460 H   0  0  0  0  0  0  0  0  0  0  0  0
   -3.9224    3.3923    0.2858 H   0  0  0  0  0  0  0  0  0  0  0  0
   -2.4767    2.8749    2.2944 H   0  0  0  0  0  0  0  0  0  0  0  0
   -1.0633    2.8025    1.2333 H   0  0  0  0  0  0  0  0  0  0  0  0
   -1.9264    4.3306    1.4418 H   0  0  0  0  0  0  0  0  0  0  0  0
   -4.5433   -1.4977   -1.6658 H   0  0  0  0  0  0  0  0  0  0  0  0
   -3.5153   -0.2580   -2.4382 H   0  0  0  0  0  0  0  0  0  0  0  0
   -1.6567   -1.8937   -2.6201 H   0  0  0  0  0  0  0  0  0  0  0  0
   -2.6439   -3.1307   -1.8385 H   0  0  0  0  0  0  0  0  0  0  0  0
   -3.1026   -2.5105   -3.4349 H   0  0  0  0  0  0  0  0  0  0  0  0
  1  2  1  0  0  0  0
  2  3  1  0  0  0  0
  3  4  2  0  0  0  0
  4  5  2  0  0  0  0
  4  6  2  0  0  0  0
  6  7  1  0  0  0  0
  7  8  1  0  0  0  0
  4  9  1  0  0  0  0
  9 10  1  0  0  0  0
 10 11  1  0  0  0  0
 11 12  1  0  0  0  0
 12 13  2  0  0  0  0
 12 14  2  0  0  0  0
 14 15  1  0  0  0  0
 15 16  1  0  0  0  0
 12 17  2  0  0  0  0
 17 18  1  0  0  0  0
 18 19  1  0  0  0  0
  1 20  1  0  0  0  0
  1 21  1  0  0  0  0
  1 22  1  0  0  0  0
  2 23  1  0  0  0  0
  2 24  1  0  0  0  0
  7 25  1  0  0  0  0
  7 26  1  0  0  0  0
  8 27  1  0  0  0  0
  8 28  1  0  0  0  0
  8 29  1  0  0  0  0
 10 30  1  0  0  0  0
 10 31  1  0  0  0  0
 15 32  1  0  0  0  0
 15 33  1  0  0  0  0
 16 34  1  0  0  0  0
 16 35  1  0  0  0  0
 16 36  1  0  0  0  0
 18 37  1  0  0  0  0
 18 38  1  0  0  0  0
 19 39  1  0  0  0  0
 19 40  1  0  0  0  0
 19 41  1  0  0  0  0
M  END
