 xtb: 6.7.1 (edcfbbe)
          04092505203D

 41 40  0     0  0            999 V2000
    4.7430   -1.5104   -0.6055 C   0  0  0  0  0  0  0  0  0  0  0  0
    4.6936   -0.0575   -0.1799 C   0  0  0  0  0  0  0  0  0  0  0  0
    3.4936    0.2509    0.5502 O   0  0  0  0  0  0  0  0  0  0  0  0
    2.0638    0.3161   -0.1452 P   0  0  0  0  0  0  0  0  0  0  0  0
    2.1102    1.0199   -1.9807 S   0  0  0  0  0  0  0  0  0  0  0  0
    1.2248    1.0448    0.9821 O   0  0  0  0  0  0  0  0  0  0  0  0
    1.5961    2.2783    1.6321 C   0  0  0  0  0  0  0  0  0  0  0  0
    1.7758    3.4194    0.6532 C   0  0  0  0  0  0  0  0  0  0  0  0
    1.2866   -1.6339    0.0431 S   0  0  0  0  0  0  0  0  0  0  0  0
    0.1747   -1.6867   -1.3997 C   0  0  0  0  0  0  0  0  0  0  0  0
   -1.5563   -1.9248   -0.9425 S   0  0  0  0  0  0  0  0  0  0  0  0
   -1.8975   -0.0677    0.0419 P   0  0  0  0  0  0  0  0  0  0  0  0
   -1.3053    1.5307   -0.9158 S   0  0  0  0  0  0  0  0  0  0  0  0
   -1.2865   -0.1868    1.4857 O   0  0  0  0  0  0  0  0  0  0  0  0
   -1.5851   -1.2753    2.3986 C   0  0  0  0  0  0  0  0  0  0  0  0
   -2.6815   -0.8787    3.3647 C   0  0  0  0  0  0  0  0  0  0  0  0
   -3.4607   -0.1408    0.3158 O   0  0  0  0  0  0  0  0  0  0  0  0
   -4.4139   -0.0083   -0.7586 C   0  0  0  0  0  0  0  0  0  0  0  0
   -5.7704    0.2731   -0.1451 C   0  0  0  0  0  0  0  0  0  0  0  0
    4.5690   -2.1608    0.2478 H   0  0  0  0  0  0  0  0  0  0  0  0
    3.9784   -1.7027   -1.3566 H   0  0  0  0  0  0  0  0  0  0  0  0
    5.7172   -1.7251   -1.0325 H   0  0  0  0  0  0  0  0  0  0  0  0
    4.7445    0.6002   -1.0537 H   0  0  0  0  0  0  0  0  0  0  0  0
    5.4947    0.1868    0.5190 H   0  0  0  0  0  0  0  0  0  0  0  0
    0.7602    2.4644    2.3091 H   0  0  0  0  0  0  0  0  0  0  0  0
    2.5107    2.0993    2.2025 H   0  0  0  0  0  0  0  0  0  0  0  0
    0.8853    3.5251    0.0354 H   0  0  0  0  0  0  0  0  0  0  0  0
    1.9473    4.3422    1.1980 H   0  0  0  0  0  0  0  0  0  0  0  0
    2.6257    3.2264   -0.0006 H   0  0  0  0  0  0  0  0  0  0  0  0
    0.4436   -2.5492   -2.0040 H   0  0  0  0  0  0  0  0  0  0  0  0
    0.2908   -0.7570   -1.9649 H   0  0  0  0  0  0  0  0  0  0  0  0
   -1.8676   -2.1581    1.8181 H   0  0  0  0  0  0  0  0  0  0  0  0
   -0.6404   -1.4620    2.9132 H   0  0  0  0  0  0  0  0  0  0  0  0
   -3.6046   -0.6838    2.8256 H   0  0  0  0  0  0  0  0  0  0  0  0
   -2.8405   -1.6891    4.0692 H   0  0  0  0  0  0  0  0  0  0  0  0
   -2.3966    0.0184    3.9072 H   0  0  0  0  0  0  0  0  0  0  0  0
   -4.0898    0.8085   -1.4120 H   0  0  0  0  0  0  0  0  0  0  0  0
   -4.4164   -0.9419   -1.3273 H   0  0  0  0  0  0  0  0  0  0  0  0
   -6.0589   -0.5432    0.5106 H   0  0  0  0  0  0  0  0  0  0  0  0
   -5.7364    1.1945    0.4295 H   0  0  0  0  0  0  0  0  0  0  0  0
   -6.5042    0.3730   -0.9380 H   0  0  0  0  0  0  0  0  0  0  0  0
  1  2  1  0  0  0  0
  2  3  1  0  0  0  0
  3  4  2  0  0  0  0
  4  5  2  0  0  0  0
  4  6  2  0  0  0  0
  6  7  1  0  0  0  0
  7  8  1  0  0  0  0
  4  9  1  0  0  0  0
  9 10  1  0  0  0  0
 10 11  1  0  0  0  0
 11 12  1  0  0  0  0
 12 13  2  0  0  0  0
 12 14  2  0  0  0  0
 14 15  1  0  0  0  0
 15 16  1  0  0  0  0
 12 17  2  0  0  0  0
 17 18  1  0  0  0  0
 18 19  1  0  0  0  0
  1 20  1  0  0  0  0
  1 21  1  0  0  0  0
  1 22  1  0  0  0  0
  2 23  1  0  0  0  0
  2 24  1  0  0  0  0
  7 25  1  0  0  0  0
  7 26  1  0  0  0  0
  8 27  1  0  0  0  0
  8 28  1  0  0  0  0
  8 29  1  0  0  0  0
 10 30  1  0  0  0  0
 10 31  1  0  0  0  0
 15 32  1  0  0  0  0
 15 33  1  0  0  0  0
 16 34  1  0  0  0  0
 16 35  1  0  0  0  0
 16 36  1  0  0  0  0
 18 37  1  0  0  0  0
 18 38  1  0  0  0  0
 19 39  1  0  0  0  0
 19 40  1  0  0  0  0
 19 41  1  0  0  0  0
M  END
