 xtb: 6.7.1 (edcfbbe)
          04032519413D

 20 19  0     0  0            999 V2000
   -1.4404    0.6344   -1.3699 C   0  0  0  0  0  0  0  0  0  0  0  0
   -1.0103    0.1313    0.0164 C   0  0  0  0  0  0  0  0  0  0  0  0
   -1.8488   -1.0891    0.4089 C   0  0  0  0  0  0  0  0  0  0  0  0
   -1.1608    1.2432    1.0523 C   0  0  0  0  0  0  0  0  0  0  0  0
    0.4372   -0.3145   -0.1290 C   0  0  0  0  0  0  0  0  0  0  0  0
    0.7812   -1.3199   -0.7181 O   0  0  0  0  0  0  0  0  0  0  0  0
    1.3034    0.5208    0.4267 O   0  0  0  0  0  0  0  0  0  0  0  0
    2.6922    0.2033    0.3110 C   0  0  0  0  0  0  0  0  0  0  0  0
   -0.8523    1.5018   -1.6610 H   0  0  0  0  0  0  0  0  0  0  0  0
   -1.2998   -0.1479   -2.1124 H   0  0  0  0  0  0  0  0  0  0  0  0
   -2.4897    0.9147   -1.3470 H   0  0  0  0  0  0  0  0  0  0  0  0
   -1.5891   -1.4234    1.4107 H   0  0  0  0  0  0  0  0  0  0  0  0
   -1.6638   -1.9059   -0.2847 H   0  0  0  0  0  0  0  0  0  0  0  0
   -2.9047   -0.8361    0.3862 H   0  0  0  0  0  0  0  0  0  0  0  0
   -0.8093    0.9107    2.0255 H   0  0  0  0  0  0  0  0  0  0  0  0
   -0.5889    2.1202    0.7627 H   0  0  0  0  0  0  0  0  0  0  0  0
   -2.2085    1.5189    1.1349 H   0  0  0  0  0  0  0  0  0  0  0  0
    3.0004    0.2567   -0.7339 H   0  0  0  0  0  0  0  0  0  0  0  0
    2.8770   -0.8053    0.6829 H   0  0  0  0  0  0  0  0  0  0  0  0
    3.2127    0.9442    0.9097 H   0  0  0  0  0  0  0  0  0  0  0  0
  1  2  1  0  0  0  0
  2  3  1  0  0  0  0
  2  4  1  0  0  0  0
  2  5  1  0  0  0  0
  5  6  2  0  0  0  0
  5  7  1  0  0  0  0
  7  8  1  0  0  0  0
  1  9  1  0  0  0  0
  1 10  1  0  0  0  0
  1 11  1  0  0  0  0
  3 12  1  0  0  0  0
  3 13  1  0  0  0  0
  3 14  1  0  0  0  0
  4 15  1  0  0  0  0
  4 16  1  0  0  0  0
  4 17  1  0  0  0  0
  8 18  1  0  0  0  0
  8 19  1  0  0  0  0
  8 20  1  0  0  0  0
M  END
