 xtb: 6.7.1 (edcfbbe)
          04092505203D

 41 40  0     0  0            999 V2000
    4.1434    0.6681   -2.3949 C   0  0  0  0  0  0  0  0  0  0  0  0
    2.8126   -0.0391   -2.2435 C   0  0  0  0  0  0  0  0  0  0  0  0
    2.0228    0.5641   -1.1883 O   0  0  0  0  0  0  0  0  0  0  0  0
    2.0002    0.0798    0.3096 P   0  0  0  0  0  0  0  0  0  0  0  0
    0.8764    1.2284    1.4253 S   0  0  0  0  0  0  0  0  0  0  0  0
    3.5372    0.0774    0.7200 O   0  0  0  0  0  0  0  0  0  0  0  0
    3.9707    0.0662    2.0911 C   0  0  0  0  0  0  0  0  0  0  0  0
    3.6067   -1.2237    2.7969 C   0  0  0  0  0  0  0  0  0  0  0  0
    1.5746   -2.0054    0.2052 S   0  0  0  0  0  0  0  0  0  0  0  0
   -0.0758   -1.9697   -0.5371 C   0  0  0  0  0  0  0  0  0  0  0  0
   -1.4125   -1.6022    0.6522 S   0  0  0  0  0  0  0  0  0  0  0  0
   -2.1391    0.2120   -0.1342 P   0  0  0  0  0  0  0  0  0  0  0  0
   -1.1737    0.9405   -1.6872 S   0  0  0  0  0  0  0  0  0  0  0  0
   -2.2456    1.0119    1.2218 O   0  0  0  0  0  0  0  0  0  0  0  0
   -3.0416    2.1973    1.4246 C   0  0  0  0  0  0  0  0  0  0  0  0
   -2.4892    3.3885    0.6685 C   0  0  0  0  0  0  0  0  0  0  0  0
   -3.6889   -0.0167   -0.4456 O   0  0  0  0  0  0  0  0  0  0  0  0
   -4.1692   -0.4638   -1.7227 C   0  0  0  0  0  0  0  0  0  0  0  0
   -3.7982   -1.9076   -1.9945 C   0  0  0  0  0  0  0  0  0  0  0  0
    3.9833    1.7304   -2.5585 H   0  0  0  0  0  0  0  0  0  0  0  0
    4.7442    0.5370   -1.4991 H   0  0  0  0  0  0  0  0  0  0  0  0
    4.6705    0.2493   -3.2465 H   0  0  0  0  0  0  0  0  0  0  0  0
    2.9531   -1.1003   -2.0200 H   0  0  0  0  0  0  0  0  0  0  0  0
    2.1941    0.0781   -3.1360 H   0  0  0  0  0  0  0  0  0  0  0  0
    5.0515    0.1982    2.0234 H   0  0  0  0  0  0  0  0  0  0  0  0
    3.5215    0.9242    2.6010 H   0  0  0  0  0  0  0  0  0  0  0  0
    2.5256   -1.2924    2.9114 H   0  0  0  0  0  0  0  0  0  0  0  0
    3.9537   -2.0803    2.2244 H   0  0  0  0  0  0  0  0  0  0  0  0
    4.0644   -1.2358    3.7808 H   0  0  0  0  0  0  0  0  0  0  0  0
   -0.2415   -2.9719   -0.9228 H   0  0  0  0  0  0  0  0  0  0  0  0
   -0.1062   -1.2179   -1.3323 H   0  0  0  0  0  0  0  0  0  0  0  0
   -4.0711    1.9809    1.1285 H   0  0  0  0  0  0  0  0  0  0  0  0
   -2.9862    2.3531    2.5034 H   0  0  0  0  0  0  0  0  0  0  0  0
   -3.0418    4.2812    0.9429 H   0  0  0  0  0  0  0  0  0  0  0  0
   -1.4373    3.5243    0.9134 H   0  0  0  0  0  0  0  0  0  0  0  0
   -2.5757    3.2309   -0.4058 H   0  0  0  0  0  0  0  0  0  0  0  0
   -5.2499   -0.3300   -1.6580 H   0  0  0  0  0  0  0  0  0  0  0  0
   -3.7565    0.1920   -2.4963 H   0  0  0  0  0  0  0  0  0  0  0  0
   -4.1003   -2.5379   -1.1621 H   0  0  0  0  0  0  0  0  0  0  0  0
   -4.2940   -2.2412   -2.9003 H   0  0  0  0  0  0  0  0  0  0  0  0
   -2.7208   -1.9925   -2.1292 H   0  0  0  0  0  0  0  0  0  0  0  0
  1  2  1  0  0  0  0
  2  3  1  0  0  0  0
  3  4  2  0  0  0  0
  4  5  2  0  0  0  0
  4  6  2  0  0  0  0
  6  7  1  0  0  0  0
  7  8  1  0  0  0  0
  4  9  1  0  0  0  0
  9 10  1  0  0  0  0
 10 11  1  0  0  0  0
 11 12  1  0  0  0  0
 12 13  2  0  0  0  0
 12 14  2  0  0  0  0
 14 15  1  0  0  0  0
 15 16  1  0  0  0  0
 12 17  2  0  0  0  0
 17 18  1  0  0  0  0
 18 19  1  0  0  0  0
  1 20  1  0  0  0  0
  1 21  1  0  0  0  0
  1 22  1  0  0  0  0
  2 23  1  0  0  0  0
  2 24  1  0  0  0  0
  7 25  1  0  0  0  0
  7 26  1  0  0  0  0
  8 27  1  0  0  0  0
  8 28  1  0  0  0  0
  8 29  1  0  0  0  0
 10 30  1  0  0  0  0
 10 31  1  0  0  0  0
 15 32  1  0  0  0  0
 15 33  1  0  0  0  0
 16 34  1  0  0  0  0
 16 35  1  0  0  0  0
 16 36  1  0  0  0  0
 18 37  1  0  0  0  0
 18 38  1  0  0  0  0
 19 39  1  0  0  0  0
 19 40  1  0  0  0  0
 19 41  1  0  0  0  0
M  END
