 xtb: 6.7.1 (edcfbbe)
          04092505203D

 41 40  0     0  0            999 V2000
    5.5634   -0.9295   -1.4115 C   0  0  0  0  0  0  0  0  0  0  0  0
    4.1595   -1.1082   -1.9566 C   0  0  0  0  0  0  0  0  0  0  0  0
    3.2484   -1.4911   -0.9058 O   0  0  0  0  0  0  0  0  0  0  0  0
    2.3522   -0.4316   -0.1300 P   0  0  0  0  0  0  0  0  0  0  0  0
    3.2926    1.1175    0.6259 S   0  0  0  0  0  0  0  0  0  0  0  0
    1.6175   -1.3770    0.9023 O   0  0  0  0  0  0  0  0  0  0  0  0
    2.0659   -1.5322    2.2727 C   0  0  0  0  0  0  0  0  0  0  0  0
    1.2038   -0.7100    3.2085 C   0  0  0  0  0  0  0  0  0  0  0  0
    0.8190   -0.0001   -1.5213 S   0  0  0  0  0  0  0  0  0  0  0  0
    0.1738    1.4634   -0.6617 C   0  0  0  0  0  0  0  0  0  0  0  0
   -0.8566    1.0377    0.7571 S   0  0  0  0  0  0  0  0  0  0  0  0
   -2.5086    0.2911   -0.3711 P   0  0  0  0  0  0  0  0  0  0  0  0
   -2.8262    1.1569   -2.0973 S   0  0  0  0  0  0  0  0  0  0  0  0
   -3.7363    0.3446    0.6366 O   0  0  0  0  0  0  0  0  0  0  0  0
   -4.5815    1.5012    0.7637 C   0  0  0  0  0  0  0  0  0  0  0  0
   -3.8519    2.6852    1.3650 C   0  0  0  0  0  0  0  0  0  0  0  0
   -2.2679   -1.2562   -0.5531 O   0  0  0  0  0  0  0  0  0  0  0  0
   -1.7244   -2.1860    0.4141 C   0  0  0  0  0  0  0  0  0  0  0  0
   -2.4466   -2.1458    1.7433 C   0  0  0  0  0  0  0  0  0  0  0  0
    5.5891   -0.1093   -0.6973 H   0  0  0  0  0  0  0  0  0  0  0  0
    5.8885   -1.8391   -0.9143 H   0  0  0  0  0  0  0  0  0  0  0  0
    6.2389   -0.7058   -2.2307 H   0  0  0  0  0  0  0  0  0  0  0  0
    4.1123   -1.9281   -2.6758 H   0  0  0  0  0  0  0  0  0  0  0  0
    3.8014   -0.1895   -2.4299 H   0  0  0  0  0  0  0  0  0  0  0  0
    1.9767   -2.6005    2.4736 H   0  0  0  0  0  0  0  0  0  0  0  0
    3.1138   -1.2293    2.3427 H   0  0  0  0  0  0  0  0  0  0  0  0
    0.1596   -0.9895    3.1058 H   0  0  0  0  0  0  0  0  0  0  0  0
    1.5252   -0.8827    4.2304 H   0  0  0  0  0  0  0  0  0  0  0  0
    1.3040    0.3486    2.9778 H   0  0  0  0  0  0  0  0  0  0  0  0
   -0.4229    2.0128   -1.3904 H   0  0  0  0  0  0  0  0  0  0  0  0
    1.0071    2.0614   -0.2904 H   0  0  0  0  0  0  0  0  0  0  0  0
   -4.9728    1.7539   -0.2268 H   0  0  0  0  0  0  0  0  0  0  0  0
   -5.3931    1.1591    1.4073 H   0  0  0  0  0  0  0  0  0  0  0  0
   -3.3652    2.4002    2.2942 H   0  0  0  0  0  0  0  0  0  0  0  0
   -3.0979    3.0509    0.6699 H   0  0  0  0  0  0  0  0  0  0  0  0
   -4.5630    3.4815    1.5599 H   0  0  0  0  0  0  0  0  0  0  0  0
   -1.8412   -3.1518   -0.0802 H   0  0  0  0  0  0  0  0  0  0  0  0
   -0.6598   -1.9679    0.5367 H   0  0  0  0  0  0  0  0  0  0  0  0
   -2.3042   -1.1783    2.2214 H   0  0  0  0  0  0  0  0  0  0  0  0
   -3.5112   -2.3091    1.5976 H   0  0  0  0  0  0  0  0  0  0  0  0
   -2.0481   -2.9251    2.3861 H   0  0  0  0  0  0  0  0  0  0  0  0
  1  2  1  0  0  0  0
  2  3  1  0  0  0  0
  3  4  2  0  0  0  0
  4  5  2  0  0  0  0
  4  6  2  0  0  0  0
  6  7  1  0  0  0  0
  7  8  1  0  0  0  0
  4  9  1  0  0  0  0
  9 10  1  0  0  0  0
 10 11  1  0  0  0  0
 11 12  1  0  0  0  0
 12 13  2  0  0  0  0
 12 14  2  0  0  0  0
 14 15  1  0  0  0  0
 15 16  1  0  0  0  0
 12 17  2  0  0  0  0
 17 18  1  0  0  0  0
 18 19  1  0  0  0  0
  1 20  1  0  0  0  0
  1 21  1  0  0  0  0
  1 22  1  0  0  0  0
  2 23  1  0  0  0  0
  2 24  1  0  0  0  0
  7 25  1  0  0  0  0
  7 26  1  0  0  0  0
  8 27  1  0  0  0  0
  8 28  1  0  0  0  0
  8 29  1  0  0  0  0
 10 30  1  0  0  0  0
 10 31  1  0  0  0  0
 15 32  1  0  0  0  0
 15 33  1  0  0  0  0
 16 34  1  0  0  0  0
 16 35  1  0  0  0  0
 16 36  1  0  0  0  0
 18 37  1  0  0  0  0
 18 38  1  0  0  0  0
 19 39  1  0  0  0  0
 19 40  1  0  0  0  0
 19 41  1  0  0  0  0
M  END
