 xtb: 6.7.1 (edcfbbe)
          04092505203D

 41 40  0     0  0            999 V2000
    2.7390    0.0348   -3.3598 C   0  0  0  0  0  0  0  0  0  0  0  0
    3.1297   -0.2949   -1.9342 C   0  0  0  0  0  0  0  0  0  0  0  0
    2.2449    0.4452   -1.0534 O   0  0  0  0  0  0  0  0  0  0  0  0
    2.0415    0.1043    0.4698 P   0  0  0  0  0  0  0  0  0  0  0  0
    0.8410    1.4198    1.2788 S   0  0  0  0  0  0  0  0  0  0  0  0
    3.5391    0.0784    1.0019 O   0  0  0  0  0  0  0  0  0  0  0  0
    3.9837   -0.5661    2.2115 C   0  0  0  0  0  0  0  0  0  0  0  0
    3.1650   -0.1745    3.4231 C   0  0  0  0  0  0  0  0  0  0  0  0
    1.5057   -1.9545    0.5732 S   0  0  0  0  0  0  0  0  0  0  0  0
   -0.0788   -1.9104   -0.2997 C   0  0  0  0  0  0  0  0  0  0  0  0
   -1.4500   -1.2201    0.6797 S   0  0  0  0  0  0  0  0  0  0  0  0
   -2.0215    0.4026   -0.5820 P   0  0  0  0  0  0  0  0  0  0  0  0
   -0.9155    0.7153   -2.1612 S   0  0  0  0  0  0  0  0  0  0  0  0
   -2.1681    1.6581    0.3502 O   0  0  0  0  0  0  0  0  0  0  0  0
   -2.9210    1.6414    1.5901 C   0  0  0  0  0  0  0  0  0  0  0  0
   -2.4804    2.8346    2.4101 C   0  0  0  0  0  0  0  0  0  0  0  0
   -3.5596    0.1106   -0.9085 O   0  0  0  0  0  0  0  0  0  0  0  0
   -4.0006   -0.6842   -2.0218 C   0  0  0  0  0  0  0  0  0  0  0  0
   -3.5886   -2.1374   -1.9007 C   0  0  0  0  0  0  0  0  0  0  0  0
    3.3521   -0.5442   -4.0425 H   0  0  0  0  0  0  0  0  0  0  0  0
    1.6894   -0.1976   -3.5251 H   0  0  0  0  0  0  0  0  0  0  0  0
    2.8829    1.0943   -3.5509 H   0  0  0  0  0  0  0  0  0  0  0  0
    4.1528    0.0143   -1.7130 H   0  0  0  0  0  0  0  0  0  0  0  0
    3.0207   -1.3631   -1.7237 H   0  0  0  0  0  0  0  0  0  0  0  0
    3.9449   -1.6470    2.0510 H   0  0  0  0  0  0  0  0  0  0  0  0
    5.0211   -0.2408    2.3075 H   0  0  0  0  0  0  0  0  0  0  0  0
    2.1359   -0.5123    3.3059 H   0  0  0  0  0  0  0  0  0  0  0  0
    3.5899   -0.6341    4.3095 H   0  0  0  0  0  0  0  0  0  0  0  0
    3.1578    0.9064    3.5436 H   0  0  0  0  0  0  0  0  0  0  0  0
   -0.3131   -2.9499   -0.5146 H   0  0  0  0  0  0  0  0  0  0  0  0
    0.0201   -1.3188   -1.2151 H   0  0  0  0  0  0  0  0  0  0  0  0
   -3.9819    1.6870    1.3352 H   0  0  0  0  0  0  0  0  0  0  0  0
   -2.7099    0.7036    2.1125 H   0  0  0  0  0  0  0  0  0  0  0  0
   -2.6879    3.7552    1.8725 H   0  0  0  0  0  0  0  0  0  0  0  0
   -3.0128    2.8356    3.3554 H   0  0  0  0  0  0  0  0  0  0  0  0
   -1.4101    2.7741    2.5948 H   0  0  0  0  0  0  0  0  0  0  0  0
   -5.0855   -0.5706   -2.0037 H   0  0  0  0  0  0  0  0  0  0  0  0
   -3.5958   -0.2445   -2.9387 H   0  0  0  0  0  0  0  0  0  0  0  0
   -3.8770   -2.5335   -0.9303 H   0  0  0  0  0  0  0  0  0  0  0  0
   -4.0744   -2.7108   -2.6836 H   0  0  0  0  0  0  0  0  0  0  0  0
   -2.5098   -2.2274   -2.0171 H   0  0  0  0  0  0  0  0  0  0  0  0
  1  2  1  0  0  0  0
  2  3  1  0  0  0  0
  3  4  2  0  0  0  0
  4  5  2  0  0  0  0
  4  6  2  0  0  0  0
  6  7  1  0  0  0  0
  7  8  1  0  0  0  0
  4  9  1  0  0  0  0
  9 10  1  0  0  0  0
 10 11  1  0  0  0  0
 11 12  1  0  0  0  0
 12 13  2  0  0  0  0
 12 14  2  0  0  0  0
 14 15  1  0  0  0  0
 15 16  1  0  0  0  0
 12 17  2  0  0  0  0
 17 18  1  0  0  0  0
 18 19  1  0  0  0  0
  1 20  1  0  0  0  0
  1 21  1  0  0  0  0
  1 22  1  0  0  0  0
  2 23  1  0  0  0  0
  2 24  1  0  0  0  0
  7 25  1  0  0  0  0
  7 26  1  0  0  0  0
  8 27  1  0  0  0  0
  8 28  1  0  0  0  0
  8 29  1  0  0  0  0
 10 30  1  0  0  0  0
 10 31  1  0  0  0  0
 15 32  1  0  0  0  0
 15 33  1  0  0  0  0
 16 34  1  0  0  0  0
 16 35  1  0  0  0  0
 16 36  1  0  0  0  0
 18 37  1  0  0  0  0
 18 38  1  0  0  0  0
 19 39  1  0  0  0  0
 19 40  1  0  0  0  0
 19 41  1  0  0  0  0
M  END
