 xtb: 6.7.1 (edcfbbe)
          04032519423D

 20 20  0     0  0            999 V2000
    0.6626    1.6867   -0.0524 C   0  0  0  0  0  0  0  0  0  0  0  0
    1.4218    0.3765   -0.2806 C   0  0  0  0  0  0  0  0  0  0  0  0
    1.6111    0.2408   -1.3561 H   0  0  0  0  0  0  0  0  0  0  0  0
    0.5621   -0.8013    0.1982 C   0  0  0  0  0  0  0  0  0  0  0  0
    0.4302   -0.7310    1.2907 H   0  0  0  0  0  0  0  0  0  0  0  0
   -0.8080   -0.7427   -0.4969 C   0  0  0  0  0  0  0  0  0  0  0  0
   -0.6576   -0.9041   -1.5700 H   0  0  0  0  0  0  0  0  0  0  0  0
   -1.4650    0.6389   -0.2808 C   0  0  0  0  0  0  0  0  0  0  0  0
   -2.3442    0.7293   -0.9294 H   0  0  0  0  0  0  0  0  0  0  0  0
   -0.6210    1.6872   -0.6587 O   0  0  0  0  0  0  0  0  0  0  0  0
   -1.9570    0.7447    1.0245 O   0  0  0  0  0  0  0  0  0  0  0  0
   -1.6491   -1.7709   -0.0391 O   0  0  0  0  0  0  0  0  0  0  0  0
    1.2416   -1.9964   -0.1105 O   0  0  0  0  0  0  0  0  0  0  0  0
    2.6319    0.4589    0.4279 O   0  0  0  0  0  0  0  0  0  0  0  0
    1.1978    2.5158   -0.5139 H   0  0  0  0  0  0  0  0  0  0  0  0
    0.6033    1.8724    1.0274 H   0  0  0  0  0  0  0  0  0  0  0  0
   -1.2445    0.9640    1.6431 H   0  0  0  0  0  0  0  0  0  0  0  0
   -2.1424   -1.4461    0.7330 H   0  0  0  0  0  0  0  0  0  0  0  0
    0.6191   -2.7346   -0.0294 H   0  0  0  0  0  0  0  0  0  0  0  0
    3.0873   -0.3934    0.3536 H   0  0  0  0  0  0  0  0  0  0  0  0
  1  2  1  0  0  0  0
  2  3  1  0  0  0  0
  2  4  1  0  0  0  0
  4  5  1  0  0  0  0
  4  6  1  0  0  0  0
  6  7  1  0  0  0  0
  6  8  1  0  0  0  0
  8  9  1  0  0  0  0
  1 10  1  0  0  0  0
  8 10  1  0  0  0  0
  8 11  1  0  0  0  0
  6 12  1  0  0  0  0
  4 13  1  0  0  0  0
  2 14  1  0  0  0  0
  1 15  1  0  0  0  0
  1 16  1  0  0  0  0
 11 17  1  0  0  0  0
 12 18  1  0  0  0  0
 13 19  1  0  0  0  0
 14 20  1  0  0  0  0
M  END
