 xtb: 6.7.1 (edcfbbe)
          04092505213D

 41 40  0     0  0            999 V2000
    5.2168   -1.7885   -1.8981 C   0  0  0  0  0  0  0  0  0  0  0  0
    4.7669   -0.5435   -1.1620 C   0  0  0  0  0  0  0  0  0  0  0  0
    3.5040   -0.8361   -0.5208 O   0  0  0  0  0  0  0  0  0  0  0  0
    2.5043    0.3169   -0.0944 P   0  0  0  0  0  0  0  0  0  0  0  0
    2.1628    1.6655   -1.4858 S   0  0  0  0  0  0  0  0  0  0  0  0
    3.1976    0.8778    1.2218 O   0  0  0  0  0  0  0  0  0  0  0  0
    2.8391    2.1397    1.8114 C   0  0  0  0  0  0  0  0  0  0  0  0
    1.4532    2.1014    2.4202 C   0  0  0  0  0  0  0  0  0  0  0  0
    0.9176   -0.8904    0.5498 S   0  0  0  0  0  0  0  0  0  0  0  0
    0.1103   -1.0360   -1.0885 C   0  0  0  0  0  0  0  0  0  0  0  0
   -1.5539   -1.6889   -0.9381 S   0  0  0  0  0  0  0  0  0  0  0  0
   -2.5403    0.0310   -0.1226 P   0  0  0  0  0  0  0  0  0  0  0  0
   -1.5021    1.6922   -0.1132 S   0  0  0  0  0  0  0  0  0  0  0  0
   -3.1156   -0.4614    1.2748 O   0  0  0  0  0  0  0  0  0  0  0  0
   -2.3058   -0.8083    2.4133 C   0  0  0  0  0  0  0  0  0  0  0  0
   -2.0684    0.3965    3.3026 C   0  0  0  0  0  0  0  0  0  0  0  0
   -3.8485    0.2172   -0.9709 O   0  0  0  0  0  0  0  0  0  0  0  0
   -4.6739   -0.8266   -1.5487 C   0  0  0  0  0  0  0  0  0  0  0  0
   -5.0660   -1.8981   -0.5557 C   0  0  0  0  0  0  0  0  0  0  0  0
    5.2927   -2.6203   -1.2040 H   0  0  0  0  0  0  0  0  0  0  0  0
    4.5039   -2.0431   -2.6773 H   0  0  0  0  0  0  0  0  0  0  0  0
    6.1868   -1.6039   -2.3480 H   0  0  0  0  0  0  0  0  0  0  0  0
    4.6225    0.3010   -1.8448 H   0  0  0  0  0  0  0  0  0  0  0  0
    5.4783   -0.2578   -0.3839 H   0  0  0  0  0  0  0  0  0  0  0  0
    3.6095    2.3031    2.5663 H   0  0  0  0  0  0  0  0  0  0  0  0
    2.8998    2.9138    1.0396 H   0  0  0  0  0  0  0  0  0  0  0  0
    1.2714    3.0216    2.9659 H   0  0  0  0  0  0  0  0  0  0  0  0
    0.7038    2.0115    1.6331 H   0  0  0  0  0  0  0  0  0  0  0  0
    1.3618    1.2543    3.0957 H   0  0  0  0  0  0  0  0  0  0  0  0
    0.6669   -1.7404   -1.7020 H   0  0  0  0  0  0  0  0  0  0  0  0
    0.0824   -0.0418   -1.5417 H   0  0  0  0  0  0  0  0  0  0  0  0
   -2.8848   -1.5745    2.9326 H   0  0  0  0  0  0  0  0  0  0  0  0
   -1.3570   -1.2345    2.0716 H   0  0  0  0  0  0  0  0  0  0  0  0
   -1.4954    0.0924    4.1722 H   0  0  0  0  0  0  0  0  0  0  0  0
   -1.5158    1.1608    2.7615 H   0  0  0  0  0  0  0  0  0  0  0  0
   -3.0172    0.8170    3.6240 H   0  0  0  0  0  0  0  0  0  0  0  0
   -5.5427   -0.2768   -1.9142 H   0  0  0  0  0  0  0  0  0  0  0  0
   -4.1261   -1.2581   -2.3899 H   0  0  0  0  0  0  0  0  0  0  0  0
   -4.1881   -2.4604   -0.2430 H   0  0  0  0  0  0  0  0  0  0  0  0
   -5.5327   -1.4505    0.3175 H   0  0  0  0  0  0  0  0  0  0  0  0
   -5.7675   -2.5771   -1.0308 H   0  0  0  0  0  0  0  0  0  0  0  0
  1  2  1  0  0  0  0
  2  3  1  0  0  0  0
  3  4  2  0  0  0  0
  4  5  2  0  0  0  0
  4  6  2  0  0  0  0
  6  7  1  0  0  0  0
  7  8  1  0  0  0  0
  4  9  1  0  0  0  0
  9 10  1  0  0  0  0
 10 11  1  0  0  0  0
 11 12  1  0  0  0  0
 12 13  2  0  0  0  0
 12 14  2  0  0  0  0
 14 15  1  0  0  0  0
 15 16  1  0  0  0  0
 12 17  2  0  0  0  0
 17 18  1  0  0  0  0
 18 19  1  0  0  0  0
  1 20  1  0  0  0  0
  1 21  1  0  0  0  0
  1 22  1  0  0  0  0
  2 23  1  0  0  0  0
  2 24  1  0  0  0  0
  7 25  1  0  0  0  0
  7 26  1  0  0  0  0
  8 27  1  0  0  0  0
  8 28  1  0  0  0  0
  8 29  1  0  0  0  0
 10 30  1  0  0  0  0
 10 31  1  0  0  0  0
 15 32  1  0  0  0  0
 15 33  1  0  0  0  0
 16 34  1  0  0  0  0
 16 35  1  0  0  0  0
 16 36  1  0  0  0  0
 18 37  1  0  0  0  0
 18 38  1  0  0  0  0
 19 39  1  0  0  0  0
 19 40  1  0  0  0  0
 19 41  1  0  0  0  0
M  END
