 xtb: 6.7.1 (edcfbbe)
          04092505213D

 41 40  0     0  0            999 V2000
    1.8462   -0.9491   -2.9152 C   0  0  0  0  0  0  0  0  0  0  0  0
    3.2379   -0.6745   -2.3831 C   0  0  0  0  0  0  0  0  0  0  0  0
    3.3516   -0.9656   -0.9793 O   0  0  0  0  0  0  0  0  0  0  0  0
    2.6425   -0.0980    0.1504 P   0  0  0  0  0  0  0  0  0  0  0  0
    2.6789    1.8434   -0.0838 S   0  0  0  0  0  0  0  0  0  0  0  0
    3.4443   -0.5209    1.4416 O   0  0  0  0  0  0  0  0  0  0  0  0
    3.6271   -1.9043    1.8504 C   0  0  0  0  0  0  0  0  0  0  0  0
    2.8115   -2.1942    3.0949 C   0  0  0  0  0  0  0  0  0  0  0  0
    0.7390   -1.0098    0.3715 S   0  0  0  0  0  0  0  0  0  0  0  0
    0.0147    0.3323    1.3771 C   0  0  0  0  0  0  0  0  0  0  0  0
   -1.7663    0.1544    1.5252 S   0  0  0  0  0  0  0  0  0  0  0  0
   -2.3255    0.7094   -0.4680 P   0  0  0  0  0  0  0  0  0  0  0  0
   -0.9238    1.4883   -1.5877 S   0  0  0  0  0  0  0  0  0  0  0  0
   -3.5402    1.6874   -0.2760 O   0  0  0  0  0  0  0  0  0  0  0  0
   -4.6912    1.3718    0.5552 C   0  0  0  0  0  0  0  0  0  0  0  0
   -4.7115    2.2751    1.7716 C   0  0  0  0  0  0  0  0  0  0  0  0
   -3.0542   -0.5673   -1.0803 O   0  0  0  0  0  0  0  0  0  0  0  0
   -2.3649   -1.7065   -1.6289 C   0  0  0  0  0  0  0  0  0  0  0  0
   -2.2313   -2.8137   -0.6015 C   0  0  0  0  0  0  0  0  0  0  0  0
    1.5221   -1.9464   -2.6277 H   0  0  0  0  0  0  0  0  0  0  0  0
    1.1416   -0.2157   -2.5234 H   0  0  0  0  0  0  0  0  0  0  0  0
    1.8551   -0.8704   -3.9975 H   0  0  0  0  0  0  0  0  0  0  0  0
    3.5128    0.3724   -2.5448 H   0  0  0  0  0  0  0  0  0  0  0  0
    3.9805   -1.3294   -2.8418 H   0  0  0  0  0  0  0  0  0  0  0  0
    3.3464   -2.5617    1.0254 H   0  0  0  0  0  0  0  0  0  0  0  0
    4.6963   -1.9959    2.0456 H   0  0  0  0  0  0  0  0  0  0  0  0
    3.0619   -3.1864    3.4567 H   0  0  0  0  0  0  0  0  0  0  0  0
    3.0402   -1.4646    3.8670 H   0  0  0  0  0  0  0  0  0  0  0  0
    1.7474   -2.1582    2.8745 H   0  0  0  0  0  0  0  0  0  0  0  0
    0.2560    1.2819    0.8928 H   0  0  0  0  0  0  0  0  0  0  0  0
    0.4176    0.2921    2.3869 H   0  0  0  0  0  0  0  0  0  0  0  0
   -5.5568    1.5461   -0.0856 H   0  0  0  0  0  0  0  0  0  0  0  0
   -4.6496    0.3192    0.8410 H   0  0  0  0  0  0  0  0  0  0  0  0
   -3.8534    2.0746    2.4082 H   0  0  0  0  0  0  0  0  0  0  0  0
   -4.6848    3.3161    1.4617 H   0  0  0  0  0  0  0  0  0  0  0  0
   -5.6216    2.0915    2.3336 H   0  0  0  0  0  0  0  0  0  0  0  0
   -2.9878   -2.0194   -2.4690 H   0  0  0  0  0  0  0  0  0  0  0  0
   -1.3873   -1.3854   -2.0014 H   0  0  0  0  0  0  0  0  0  0  0  0
   -3.2054   -3.0535   -0.1848 H   0  0  0  0  0  0  0  0  0  0  0  0
   -1.8212   -3.6943   -1.0846 H   0  0  0  0  0  0  0  0  0  0  0  0
   -1.5634   -2.5136    0.2028 H   0  0  0  0  0  0  0  0  0  0  0  0
  1  2  1  0  0  0  0
  2  3  1  0  0  0  0
  3  4  2  0  0  0  0
  4  5  2  0  0  0  0
  4  6  2  0  0  0  0
  6  7  1  0  0  0  0
  7  8  1  0  0  0  0
  4  9  1  0  0  0  0
  9 10  1  0  0  0  0
 10 11  1  0  0  0  0
 11 12  1  0  0  0  0
 12 13  2  0  0  0  0
 12 14  2  0  0  0  0
 14 15  1  0  0  0  0
 15 16  1  0  0  0  0
 12 17  2  0  0  0  0
 17 18  1  0  0  0  0
 18 19  1  0  0  0  0
  1 20  1  0  0  0  0
  1 21  1  0  0  0  0
  1 22  1  0  0  0  0
  2 23  1  0  0  0  0
  2 24  1  0  0  0  0
  7 25  1  0  0  0  0
  7 26  1  0  0  0  0
  8 27  1  0  0  0  0
  8 28  1  0  0  0  0
  8 29  1  0  0  0  0
 10 30  1  0  0  0  0
 10 31  1  0  0  0  0
 15 32  1  0  0  0  0
 15 33  1  0  0  0  0
 16 34  1  0  0  0  0
 16 35  1  0  0  0  0
 16 36  1  0  0  0  0
 18 37  1  0  0  0  0
 18 38  1  0  0  0  0
 19 39  1  0  0  0  0
 19 40  1  0  0  0  0
 19 41  1  0  0  0  0
M  END
