 xtb: 6.7.1 (edcfbbe)
          04092505203D

 41 40  0     0  0            999 V2000
    5.0597   -2.3747   -1.4808 C   0  0  0  0  0  0  0  0  0  0  0  0
    4.1049   -1.1990   -1.5303 C   0  0  0  0  0  0  0  0  0  0  0  0
    3.0864   -1.4139   -0.5330 O   0  0  0  0  0  0  0  0  0  0  0  0
    2.1797   -0.2277    0.0042 P   0  0  0  0  0  0  0  0  0  0  0  0
    3.1394    1.4052    0.5244 S   0  0  0  0  0  0  0  0  0  0  0  0
    1.3460   -0.9450    1.1386 O   0  0  0  0  0  0  0  0  0  0  0  0
    1.7431   -0.8854    2.5261 C   0  0  0  0  0  0  0  0  0  0  0  0
    3.0161   -1.6660    2.7723 C   0  0  0  0  0  0  0  0  0  0  0  0
    0.7303    0.0018   -1.5206 S   0  0  0  0  0  0  0  0  0  0  0  0
    0.0644    1.5739   -0.9107 C   0  0  0  0  0  0  0  0  0  0  0  0
   -0.9074    1.3844    0.6011 S   0  0  0  0  0  0  0  0  0  0  0  0
   -2.5464    0.3694   -0.3231 P   0  0  0  0  0  0  0  0  0  0  0  0
   -3.0198    0.9788   -2.1176 S   0  0  0  0  0  0  0  0  0  0  0  0
   -3.6961    0.4379    0.7734 O   0  0  0  0  0  0  0  0  0  0  0  0
   -4.6336    1.5284    0.8536 C   0  0  0  0  0  0  0  0  0  0  0  0
   -3.9656    2.8405    1.2087 C   0  0  0  0  0  0  0  0  0  0  0  0
   -2.1687   -1.1606   -0.2972 O   0  0  0  0  0  0  0  0  0  0  0  0
   -1.9298   -1.8954    0.9301 C   0  0  0  0  0  0  0  0  0  0  0  0
   -1.1369   -3.1363    0.5777 C   0  0  0  0  0  0  0  0  0  0  0  0
    5.5392   -2.4284   -0.5076 H   0  0  0  0  0  0  0  0  0  0  0  0
    4.5173   -3.2986   -1.6584 H   0  0  0  0  0  0  0  0  0  0  0  0
    5.8179   -2.2494   -2.2468 H   0  0  0  0  0  0  0  0  0  0  0  0
    3.6170   -1.1205   -2.5057 H   0  0  0  0  0  0  0  0  0  0  0  0
    4.6159   -0.2555   -1.3100 H   0  0  0  0  0  0  0  0  0  0  0  0
    1.8695    0.1653    2.8056 H   0  0  0  0  0  0  0  0  0  0  0  0
    0.8946   -1.3124    3.0620 H   0  0  0  0  0  0  0  0  0  0  0  0
    3.2372   -1.6708    3.8350 H   0  0  0  0  0  0  0  0  0  0  0  0
    2.9061   -2.6874    2.4184 H   0  0  0  0  0  0  0  0  0  0  0  0
    3.8430   -1.1960    2.2410 H   0  0  0  0  0  0  0  0  0  0  0  0
   -0.5719    1.9720   -1.7015 H   0  0  0  0  0  0  0  0  0  0  0  0
    0.8872    2.2506   -0.6786 H   0  0  0  0  0  0  0  0  0  0  0  0
   -5.1500    1.6078   -0.1077 H   0  0  0  0  0  0  0  0  0  0  0  0
   -5.3332    1.2092    1.6274 H   0  0  0  0  0  0  0  0  0  0  0  0
   -3.3583    2.7283    2.1034 H   0  0  0  0  0  0  0  0  0  0  0  0
   -3.3273    3.1675    0.3892 H   0  0  0  0  0  0  0  0  0  0  0  0
   -4.7273    3.5939    1.3813 H   0  0  0  0  0  0  0  0  0  0  0  0
   -1.3813   -1.2485    1.6213 H   0  0  0  0  0  0  0  0  0  0  0  0
   -2.9014   -2.1434    1.3615 H   0  0  0  0  0  0  0  0  0  0  0  0
   -1.6713   -3.7165   -0.1691 H   0  0  0  0  0  0  0  0  0  0  0  0
   -0.1657   -2.8588    0.1753 H   0  0  0  0  0  0  0  0  0  0  0  0
   -0.9976   -3.7368    1.4709 H   0  0  0  0  0  0  0  0  0  0  0  0
  1  2  1  0  0  0  0
  2  3  1  0  0  0  0
  3  4  2  0  0  0  0
  4  5  2  0  0  0  0
  4  6  2  0  0  0  0
  6  7  1  0  0  0  0
  7  8  1  0  0  0  0
  4  9  1  0  0  0  0
  9 10  1  0  0  0  0
 10 11  1  0  0  0  0
 11 12  1  0  0  0  0
 12 13  2  0  0  0  0
 12 14  2  0  0  0  0
 14 15  1  0  0  0  0
 15 16  1  0  0  0  0
 12 17  2  0  0  0  0
 17 18  1  0  0  0  0
 18 19  1  0  0  0  0
  1 20  1  0  0  0  0
  1 21  1  0  0  0  0
  1 22  1  0  0  0  0
  2 23  1  0  0  0  0
  2 24  1  0  0  0  0
  7 25  1  0  0  0  0
  7 26  1  0  0  0  0
  8 27  1  0  0  0  0
  8 28  1  0  0  0  0
  8 29  1  0  0  0  0
 10 30  1  0  0  0  0
 10 31  1  0  0  0  0
 15 32  1  0  0  0  0
 15 33  1  0  0  0  0
 16 34  1  0  0  0  0
 16 35  1  0  0  0  0
 16 36  1  0  0  0  0
 18 37  1  0  0  0  0
 18 38  1  0  0  0  0
 19 39  1  0  0  0  0
 19 40  1  0  0  0  0
 19 41  1  0  0  0  0
M  END
