 xtb: 6.7.1 (edcfbbe)
          04092507313D

 38 37  0     0  0            999 V2000
    4.1658   -1.3091    1.2739 C   0  0  0  0  0  0  0  0  0  0  0  0
    2.9526   -2.1386    0.8865 C   0  0  0  0  0  0  0  0  0  0  0  0
    2.4588   -1.7482   -0.4091 O   0  0  0  0  0  0  0  0  0  0  0  0
    1.6062   -0.7603   -0.4821 C   0  0  0  0  0  0  0  0  0  0  0  0
    1.1994   -0.1113    0.4678 O   0  0  0  0  0  0  0  0  0  0  0  0
    1.1822   -0.4565   -1.9011 C   0  0  0  0  0  0  0  0  0  0  0  0
    0.3056    0.7887   -1.8955 C   0  0  0  0  0  0  0  0  0  0  0  0
    0.2284    1.2002   -2.9062 H   0  0  0  0  0  0  0  0  0  0  0  0
    0.9372    1.8548   -1.0051 C   0  0  0  0  0  0  0  0  0  0  0  0
    2.1139    2.1305   -1.0944 O   0  0  0  0  0  0  0  0  0  0  0  0
    0.0735    2.4707   -0.2316 O   0  0  0  0  0  0  0  0  0  0  0  0
    0.5648    3.5190    0.6297 C   0  0  0  0  0  0  0  0  0  0  0  0
    1.3453    2.9627    1.8092 C   0  0  0  0  0  0  0  0  0  0  0  0
   -1.4352    0.4674   -1.4641 S   0  0  0  0  0  0  0  0  0  0  0  0
   -1.5356   -0.7334    0.2896 P   0  0  0  0  0  0  0  0  0  0  0  0
   -0.7010   -2.5097    0.3213 S   0  0  0  0  0  0  0  0  0  0  0  0
   -1.2948    0.1430    1.5825 O   0  0  0  0  0  0  0  0  0  0  0  0
   -2.1121    1.2947    1.8735 C   0  0  0  0  0  0  0  0  0  0  0  0
   -3.1343   -0.8534    0.3430 O   0  0  0  0  0  0  0  0  0  0  0  0
   -3.8564   -1.6888   -0.5662 C   0  0  0  0  0  0  0  0  0  0  0  0
    4.5389   -1.6468    2.2348 H   0  0  0  0  0  0  0  0  0  0  0  0
    4.9456   -1.4163    0.5252 H   0  0  0  0  0  0  0  0  0  0  0  0
    3.8912   -0.2588    1.3494 H   0  0  0  0  0  0  0  0  0  0  0  0
    2.1439   -2.0222    1.6143 H   0  0  0  0  0  0  0  0  0  0  0  0
    3.2036   -3.1930    0.7729 H   0  0  0  0  0  0  0  0  0  0  0  0
    0.6610   -1.3193   -2.3190 H   0  0  0  0  0  0  0  0  0  0  0  0
    2.0845   -0.2794   -2.4891 H   0  0  0  0  0  0  0  0  0  0  0  0
    1.1945    4.1842    0.0320 H   0  0  0  0  0  0  0  0  0  0  0  0
   -0.3381    4.0366    0.9535 H   0  0  0  0  0  0  0  0  0  0  0  0
    0.7868    2.1607    2.2851 H   0  0  0  0  0  0  0  0  0  0  0  0
    2.2955    2.5560    1.4708 H   0  0  0  0  0  0  0  0  0  0  0  0
    1.5315    3.7556    2.5257 H   0  0  0  0  0  0  0  0  0  0  0  0
   -2.0708    1.9980    1.0426 H   0  0  0  0  0  0  0  0  0  0  0  0
   -1.6806    1.7293    2.7715 H   0  0  0  0  0  0  0  0  0  0  0  0
   -3.1392    0.9815    2.0504 H   0  0  0  0  0  0  0  0  0  0  0  0
   -3.3574   -2.6544   -0.6643 H   0  0  0  0  0  0  0  0  0  0  0  0
   -3.9251   -1.2031   -1.5386 H   0  0  0  0  0  0  0  0  0  0  0  0
   -4.8432   -1.8152   -0.1281 H   0  0  0  0  0  0  0  0  0  0  0  0
  1  2  1  0  0  0  0
  2  3  1  0  0  0  0
  3  4  4  0  0  0  0
  4  5  2  0  0  0  0
  4  6  1  0  0  0  0
  6  7  1  0  0  0  0
  7  8  1  0  0  0  0
  7  9  1  0  0  0  0
  9 10  2  0  0  0  0
  9 11  1  0  0  0  0
 11 12  1  0  0  0  0
 12 13  1  0  0  0  0
  7 14  1  0  0  0  0
 14 15  1  0  0  0  0
 15 16  2  0  0  0  0
 15 17  2  0  0  0  0
 17 18  1  0  0  0  0
 15 19  1  0  0  0  0
 19 20  1  0  0  0  0
  1 21  1  0  0  0  0
  1 22  1  0  0  0  0
  1 23  1  0  0  0  0
  2 24  1  0  0  0  0
  2 25  1  0  0  0  0
  6 26  1  0  0  0  0
  6 27  1  0  0  0  0
 12 28  1  0  0  0  0
 12 29  1  0  0  0  0
 13 30  1  0  0  0  0
 13 31  1  0  0  0  0
 13 32  1  0  0  0  0
 18 33  1  0  0  0  0
 18 34  1  0  0  0  0
 18 35  1  0  0  0  0
 20 36  1  0  0  0  0
 20 37  1  0  0  0  0
 20 38  1  0  0  0  0
M  END
