 xtb: 6.7.1 (edcfbbe)
          04092505203D

 41 40  0     0  0            999 V2000
    4.6251    0.7865   -1.6296 C   0  0  0  0  0  0  0  0  0  0  0  0
    4.7718    0.0347   -0.3228 C   0  0  0  0  0  0  0  0  0  0  0  0
    3.5769   -0.6829    0.0373 O   0  0  0  0  0  0  0  0  0  0  0  0
    2.2218    0.0559    0.4195 P   0  0  0  0  0  0  0  0  0  0  0  0
    2.4179    1.6829    1.4805 S   0  0  0  0  0  0  0  0  0  0  0  0
    1.4238   -1.0728    1.1834 O   0  0  0  0  0  0  0  0  0  0  0  0
    1.3247   -2.4359    0.7023 C   0  0  0  0  0  0  0  0  0  0  0  0
    2.3305   -3.3229    1.4043 C   0  0  0  0  0  0  0  0  0  0  0  0
    1.2306    0.2612   -1.4614 S   0  0  0  0  0  0  0  0  0  0  0  0
    0.0798    1.5686   -0.9470 C   0  0  0  0  0  0  0  0  0  0  0  0
   -0.9241    1.1475    0.4987 S   0  0  0  0  0  0  0  0  0  0  0  0
   -2.3281   -0.1349   -0.4854 P   0  0  0  0  0  0  0  0  0  0  0  0
   -1.6370   -1.8232   -1.1936 S   0  0  0  0  0  0  0  0  0  0  0  0
   -2.9747    0.7485   -1.6232 O   0  0  0  0  0  0  0  0  0  0  0  0
   -4.0720    1.6819   -1.4576 C   0  0  0  0  0  0  0  0  0  0  0  0
   -3.7184    2.8566   -0.5702 C   0  0  0  0  0  0  0  0  0  0  0  0
   -3.5024   -0.2868    0.5739 O   0  0  0  0  0  0  0  0  0  0  0  0
   -3.4931   -1.3259    1.5679 C   0  0  0  0  0  0  0  0  0  0  0  0
   -2.4562   -1.0721    2.6433 C   0  0  0  0  0  0  0  0  0  0  0  0
    3.9188    1.6064   -1.5103 H   0  0  0  0  0  0  0  0  0  0  0  0
    5.5893    1.1926   -1.9181 H   0  0  0  0  0  0  0  0  0  0  0  0
    4.2636    0.1226   -2.4112 H   0  0  0  0  0  0  0  0  0  0  0  0
    5.0156    0.7239    0.4914 H   0  0  0  0  0  0  0  0  0  0  0  0
    5.5316   -0.7452   -0.3912 H   0  0  0  0  0  0  0  0  0  0  0  0
    0.2995   -2.7397    0.9245 H   0  0  0  0  0  0  0  0  0  0  0  0
    1.4656   -2.4456   -0.3822 H   0  0  0  0  0  0  0  0  0  0  0  0
    3.3427   -3.0168    1.1542 H   0  0  0  0  0  0  0  0  0  0  0  0
    2.1969   -3.2542    2.4804 H   0  0  0  0  0  0  0  0  0  0  0  0
    2.1759   -4.3491    1.0862 H   0  0  0  0  0  0  0  0  0  0  0  0
   -0.5609    1.7662   -1.8040 H   0  0  0  0  0  0  0  0  0  0  0  0
    0.6507    2.4510   -0.6607 H   0  0  0  0  0  0  0  0  0  0  0  0
   -4.2812    1.9984   -2.4807 H   0  0  0  0  0  0  0  0  0  0  0  0
   -4.9258    1.1344   -1.0552 H   0  0  0  0  0  0  0  0  0  0  0  0
   -3.5254    2.5204    0.4460 H   0  0  0  0  0  0  0  0  0  0  0  0
   -2.8360    3.3705   -0.9435 H   0  0  0  0  0  0  0  0  0  0  0  0
   -4.5534    3.5505   -0.5593 H   0  0  0  0  0  0  0  0  0  0  0  0
   -4.5049   -1.3094    1.9751 H   0  0  0  0  0  0  0  0  0  0  0  0
   -3.3067   -2.2818    1.0673 H   0  0  0  0  0  0  0  0  0  0  0  0
   -2.6006   -0.0905    3.0878 H   0  0  0  0  0  0  0  0  0  0  0  0
   -2.5422   -1.8320    3.4133 H   0  0  0  0  0  0  0  0  0  0  0  0
   -1.4531   -1.1126    2.2191 H   0  0  0  0  0  0  0  0  0  0  0  0
  1  2  1  0  0  0  0
  2  3  1  0  0  0  0
  3  4  2  0  0  0  0
  4  5  2  0  0  0  0
  4  6  2  0  0  0  0
  6  7  1  0  0  0  0
  7  8  1  0  0  0  0
  4  9  1  0  0  0  0
  9 10  1  0  0  0  0
 10 11  1  0  0  0  0
 11 12  1  0  0  0  0
 12 13  2  0  0  0  0
 12 14  2  0  0  0  0
 14 15  1  0  0  0  0
 15 16  1  0  0  0  0
 12 17  2  0  0  0  0
 17 18  1  0  0  0  0
 18 19  1  0  0  0  0
  1 20  1  0  0  0  0
  1 21  1  0  0  0  0
  1 22  1  0  0  0  0
  2 23  1  0  0  0  0
  2 24  1  0  0  0  0
  7 25  1  0  0  0  0
  7 26  1  0  0  0  0
  8 27  1  0  0  0  0
  8 28  1  0  0  0  0
  8 29  1  0  0  0  0
 10 30  1  0  0  0  0
 10 31  1  0  0  0  0
 15 32  1  0  0  0  0
 15 33  1  0  0  0  0
 16 34  1  0  0  0  0
 16 35  1  0  0  0  0
 16 36  1  0  0  0  0
 18 37  1  0  0  0  0
 18 38  1  0  0  0  0
 19 39  1  0  0  0  0
 19 40  1  0  0  0  0
 19 41  1  0  0  0  0
M  END
