 xtb: 6.7.1 (edcfbbe)
          04092507313D

 38 37  0     0  0            999 V2000
    1.8503   -3.2378    0.0949 C   0  0  0  0  0  0  0  0  0  0  0  0
    2.9193   -2.1653   -0.0393 C   0  0  0  0  0  0  0  0  0  0  0  0
    2.3398   -0.9407   -0.5285 O   0  0  0  0  0  0  0  0  0  0  0  0
    2.2480   -0.7673   -1.8390 C   0  0  0  0  0  0  0  0  0  0  0  0
    2.7219   -1.5175   -2.6596 O   0  0  0  0  0  0  0  0  0  0  0  0
    1.4963    0.5022   -2.1893 C   0  0  0  0  0  0  0  0  0  0  0  0
    0.3584    0.7729   -1.2127 C   0  0  0  0  0  0  0  0  0  0  0  0
   -0.1918    1.6727   -1.5066 H   0  0  0  0  0  0  0  0  0  0  0  0
    0.8421    0.9658    0.2101 C   0  0  0  0  0  0  0  0  0  0  0  0
    0.2929    0.4383    1.1586 O   0  0  0  0  0  0  0  0  0  0  0  0
    1.8487    1.7855    0.2962 O   0  0  0  0  0  0  0  0  0  0  0  0
    2.3519    2.0866    1.6165 C   0  0  0  0  0  0  0  0  0  0  0  0
    3.5601    2.9875    1.4615 C   0  0  0  0  0  0  0  0  0  0  0  0
   -0.8204   -0.6231   -1.1974 S   0  0  0  0  0  0  0  0  0  0  0  0
   -2.1254    0.0809    0.3383 P   0  0  0  0  0  0  0  0  0  0  0  0
   -2.2225    1.9949    0.7365 S   0  0  0  0  0  0  0  0  0  0  0  0
   -3.5285   -0.3226   -0.3070 O   0  0  0  0  0  0  0  0  0  0  0  0
   -3.8542   -1.6637   -0.7055 C   0  0  0  0  0  0  0  0  0  0  0  0
   -2.1091   -0.9587    1.5530 O   0  0  0  0  0  0  0  0  0  0  0  0
   -1.4934   -0.7980    2.8302 C   0  0  0  0  0  0  0  0  0  0  0  0
    1.4513   -3.4913   -0.8847 H   0  0  0  0  0  0  0  0  0  0  0  0
    2.2814   -4.1252    0.5459 H   0  0  0  0  0  0  0  0  0  0  0  0
    1.0354   -2.8761    0.7179 H   0  0  0  0  0  0  0  0  0  0  0  0
    3.7045   -2.4794   -0.7324 H   0  0  0  0  0  0  0  0  0  0  0  0
    3.3473   -1.9045    0.9291 H   0  0  0  0  0  0  0  0  0  0  0  0
    1.1154    0.3985   -3.2050 H   0  0  0  0  0  0  0  0  0  0  0  0
    2.1964    1.3400   -2.1554 H   0  0  0  0  0  0  0  0  0  0  0  0
    1.5493    2.5713    2.1809 H   0  0  0  0  0  0  0  0  0  0  0  0
    2.6039    1.1430    2.1087 H   0  0  0  0  0  0  0  0  0  0  0  0
    3.9461    3.2378    2.4439 H   0  0  0  0  0  0  0  0  0  0  0  0
    4.3336    2.4825    0.8909 H   0  0  0  0  0  0  0  0  0  0  0  0
    3.2797    3.9004    0.9450 H   0  0  0  0  0  0  0  0  0  0  0  0
   -3.1057   -2.0372   -1.4056 H   0  0  0  0  0  0  0  0  0  0  0  0
   -4.8255   -1.5894   -1.1879 H   0  0  0  0  0  0  0  0  0  0  0  0
   -3.9042   -2.3100    0.1690 H   0  0  0  0  0  0  0  0  0  0  0  0
   -1.4627    0.2561    3.1060 H   0  0  0  0  0  0  0  0  0  0  0  0
   -0.4811   -1.1958    2.8032 H   0  0  0  0  0  0  0  0  0  0  0  0
   -2.1146   -1.3579    3.5261 H   0  0  0  0  0  0  0  0  0  0  0  0
  1  2  1  0  0  0  0
  2  3  1  0  0  0  0
  3  4  1  0  0  0  0
  4  5  2  0  0  0  0
  4  6  1  0  0  0  0
  6  7  1  0  0  0  0
  7  8  1  0  0  0  0
  7  9  1  0  0  0  0
  9 10  2  0  0  0  0
  9 11  4  0  0  0  0
 11 12  1  0  0  0  0
 12 13  1  0  0  0  0
  7 14  1  0  0  0  0
 14 15  1  0  0  0  0
 15 16  2  0  0  0  0
 15 17  1  0  0  0  0
 17 18  1  0  0  0  0
 15 19  2  0  0  0  0
 19 20  1  0  0  0  0
  1 21  1  0  0  0  0
  1 22  1  0  0  0  0
  1 23  1  0  0  0  0
  2 24  1  0  0  0  0
  2 25  1  0  0  0  0
  6 26  1  0  0  0  0
  6 27  1  0  0  0  0
 12 28  1  0  0  0  0
 12 29  1  0  0  0  0
 13 30  1  0  0  0  0
 13 31  1  0  0  0  0
 13 32  1  0  0  0  0
 18 33  1  0  0  0  0
 18 34  1  0  0  0  0
 18 35  1  0  0  0  0
 20 36  1  0  0  0  0
 20 37  1  0  0  0  0
 20 38  1  0  0  0  0
M  END
