 xtb: 6.7.1 (edcfbbe)
          04092505213D

 41 40  0     0  0            999 V2000
    1.8145    0.0816    3.3413 C   0  0  0  0  0  0  0  0  0  0  0  0
    1.1949   -0.7049    2.2038 C   0  0  0  0  0  0  0  0  0  0  0  0
    1.8794   -0.3361    0.9939 O   0  0  0  0  0  0  0  0  0  0  0  0
    1.9569   -1.2697   -0.2921 P   0  0  0  0  0  0  0  0  0  0  0  0
    2.1188   -3.1841    0.0814 S   0  0  0  0  0  0  0  0  0  0  0  0
    3.1279   -0.5860   -1.1116 O   0  0  0  0  0  0  0  0  0  0  0  0
    4.5023   -1.0007   -0.9570 C   0  0  0  0  0  0  0  0  0  0  0  0
    5.0350   -0.6895    0.4254 C   0  0  0  0  0  0  0  0  0  0  0  0
    0.3278   -0.7124   -1.5207 S   0  0  0  0  0  0  0  0  0  0  0  0
    0.5238    1.0951   -1.4678 C   0  0  0  0  0  0  0  0  0  0  0  0
   -0.0776    1.8480    0.0689 S   0  0  0  0  0  0  0  0  0  0  0  0
   -2.0510    1.1104   -0.0444 P   0  0  0  0  0  0  0  0  0  0  0  0
   -2.8376    0.9981   -1.8420 S   0  0  0  0  0  0  0  0  0  0  0  0
   -2.8151    1.9952    1.0305 O   0  0  0  0  0  0  0  0  0  0  0  0
   -3.0532    3.4086    0.8660 C   0  0  0  0  0  0  0  0  0  0  0  0
   -4.3613    3.6669    0.1436 C   0  0  0  0  0  0  0  0  0  0  0  0
   -1.9717   -0.2529    0.7607 O   0  0  0  0  0  0  0  0  0  0  0  0
   -2.7300   -1.4343    0.4229 C   0  0  0  0  0  0  0  0  0  0  0  0
   -1.9530   -2.6525    0.8778 C   0  0  0  0  0  0  0  0  0  0  0  0
    1.7295    1.1457    3.1390 H   0  0  0  0  0  0  0  0  0  0  0  0
    1.2904   -0.1531    4.2618 H   0  0  0  0  0  0  0  0  0  0  0  0
    2.8641   -0.1760    3.4506 H   0  0  0  0  0  0  0  0  0  0  0  0
    0.1349   -0.4608    2.0898 H   0  0  0  0  0  0  0  0  0  0  0  0
    1.3009   -1.7855    2.3495 H   0  0  0  0  0  0  0  0  0  0  0  0
    4.5631   -2.0739   -1.1624 H   0  0  0  0  0  0  0  0  0  0  0  0
    5.0293   -0.4435   -1.7326 H   0  0  0  0  0  0  0  0  0  0  0  0
    4.8780    0.3594    0.6629 H   0  0  0  0  0  0  0  0  0  0  0  0
    4.5197   -1.3018    1.1643 H   0  0  0  0  0  0  0  0  0  0  0  0
    6.0964   -0.9147    0.4604 H   0  0  0  0  0  0  0  0  0  0  0  0
   -0.0633    1.4728   -2.3041 H   0  0  0  0  0  0  0  0  0  0  0  0
    1.5739    1.3553   -1.5650 H   0  0  0  0  0  0  0  0  0  0  0  0
   -3.0805    3.7954    1.8864 H   0  0  0  0  0  0  0  0  0  0  0  0
   -2.2113    3.8548    0.3292 H   0  0  0  0  0  0  0  0  0  0  0  0
   -5.1818    3.1934    0.6756 H   0  0  0  0  0  0  0  0  0  0  0  0
   -4.5361    4.7367    0.0926 H   0  0  0  0  0  0  0  0  0  0  0  0
   -4.3229    3.2647   -0.8662 H   0  0  0  0  0  0  0  0  0  0  0  0
   -3.6920   -1.3660    0.9355 H   0  0  0  0  0  0  0  0  0  0  0  0
   -2.8979   -1.4472   -0.6594 H   0  0  0  0  0  0  0  0  0  0  0  0
   -2.5300   -3.5437    0.6539 H   0  0  0  0  0  0  0  0  0  0  0  0
   -0.9984   -2.7163    0.3587 H   0  0  0  0  0  0  0  0  0  0  0  0
   -1.7688   -2.6033    1.9473 H   0  0  0  0  0  0  0  0  0  0  0  0
  1  2  1  0  0  0  0
  2  3  1  0  0  0  0
  3  4  2  0  0  0  0
  4  5  2  0  0  0  0
  4  6  2  0  0  0  0
  6  7  1  0  0  0  0
  7  8  1  0  0  0  0
  4  9  1  0  0  0  0
  9 10  1  0  0  0  0
 10 11  1  0  0  0  0
 11 12  1  0  0  0  0
 12 13  2  0  0  0  0
 12 14  2  0  0  0  0
 14 15  1  0  0  0  0
 15 16  1  0  0  0  0
 12 17  2  0  0  0  0
 17 18  1  0  0  0  0
 18 19  1  0  0  0  0
  1 20  1  0  0  0  0
  1 21  1  0  0  0  0
  1 22  1  0  0  0  0
  2 23  1  0  0  0  0
  2 24  1  0  0  0  0
  7 25  1  0  0  0  0
  7 26  1  0  0  0  0
  8 27  1  0  0  0  0
  8 28  1  0  0  0  0
  8 29  1  0  0  0  0
 10 30  1  0  0  0  0
 10 31  1  0  0  0  0
 15 32  1  0  0  0  0
 15 33  1  0  0  0  0
 16 34  1  0  0  0  0
 16 35  1  0  0  0  0
 16 36  1  0  0  0  0
 18 37  1  0  0  0  0
 18 38  1  0  0  0  0
 19 39  1  0  0  0  0
 19 40  1  0  0  0  0
 19 41  1  0  0  0  0
M  END
