 xtb: 6.7.1 (edcfbbe)
          04092505213D

 41 40  0     0  0            999 V2000
    2.5198    0.9051   -2.5328 C   0  0  0  0  0  0  0  0  0  0  0  0
    1.9322   -0.4398   -2.1544 C   0  0  0  0  0  0  0  0  0  0  0  0
    2.5922   -1.0043   -1.0100 O   0  0  0  0  0  0  0  0  0  0  0  0
    2.2753   -0.6646    0.5110 P   0  0  0  0  0  0  0  0  0  0  0  0
    2.5497    1.1719    1.1544 S   0  0  0  0  0  0  0  0  0  0  0  0
    3.1831   -1.7396    1.2357 O   0  0  0  0  0  0  0  0  0  0  0  0
    4.5177   -1.4370    1.6887 C   0  0  0  0  0  0  0  0  0  0  0  0
    5.4665   -1.2308    0.5271 C   0  0  0  0  0  0  0  0  0  0  0  0
    0.3857   -1.5461    0.8324 S   0  0  0  0  0  0  0  0  0  0  0  0
   -0.3531   -0.3118    1.9627 C   0  0  0  0  0  0  0  0  0  0  0  0
   -2.1142   -0.1086    1.6476 S   0  0  0  0  0  0  0  0  0  0  0  0
   -1.9742    0.6099   -0.3593 P   0  0  0  0  0  0  0  0  0  0  0  0
   -0.5299    1.8793   -0.7130 S   0  0  0  0  0  0  0  0  0  0  0  0
   -3.4446    1.1494   -0.6150 O   0  0  0  0  0  0  0  0  0  0  0  0
   -3.9195    2.3520    0.0262 C   0  0  0  0  0  0  0  0  0  0  0  0
   -5.1808    2.7915   -0.6890 C   0  0  0  0  0  0  0  0  0  0  0  0
   -1.8899   -0.6495   -1.2978 O   0  0  0  0  0  0  0  0  0  0  0  0
   -2.8501   -1.7376   -1.2690 C   0  0  0  0  0  0  0  0  0  0  0  0
   -3.8941   -1.5543   -2.3506 C   0  0  0  0  0  0  0  0  0  0  0  0
    2.0561    1.2508   -3.4511 H   0  0  0  0  0  0  0  0  0  0  0  0
    2.3231    1.6372   -1.7516 H   0  0  0  0  0  0  0  0  0  0  0  0
    3.5933    0.8201   -2.6776 H   0  0  0  0  0  0  0  0  0  0  0  0
    2.0926   -1.1793   -2.9413 H   0  0  0  0  0  0  0  0  0  0  0  0
    0.8597   -0.3507   -1.9523 H   0  0  0  0  0  0  0  0  0  0  0  0
    4.4756   -0.5409    2.3162 H   0  0  0  0  0  0  0  0  0  0  0  0
    4.7915   -2.3035    2.2916 H   0  0  0  0  0  0  0  0  0  0  0  0
    5.1671   -0.3471   -0.0355 H   0  0  0  0  0  0  0  0  0  0  0  0
    6.4744   -1.0866    0.9033 H   0  0  0  0  0  0  0  0  0  0  0  0
    5.4433   -2.0923   -0.1350 H   0  0  0  0  0  0  0  0  0  0  0  0
    0.1649    0.6416    1.8196 H   0  0  0  0  0  0  0  0  0  0  0  0
   -0.2630   -0.6611    2.9882 H   0  0  0  0  0  0  0  0  0  0  0  0
   -4.1129    2.1234    1.0776 H   0  0  0  0  0  0  0  0  0  0  0  0
   -3.1352    3.1134   -0.0370 H   0  0  0  0  0  0  0  0  0  0  0  0
   -5.5581    3.6944   -0.2205 H   0  0  0  0  0  0  0  0  0  0  0  0
   -4.9661    2.9936   -1.7346 H   0  0  0  0  0  0  0  0  0  0  0  0
   -5.9348    2.0124   -0.6262 H   0  0  0  0  0  0  0  0  0  0  0  0
   -2.2489   -2.6334   -1.4342 H   0  0  0  0  0  0  0  0  0  0  0  0
   -3.3074   -1.7794   -0.2768 H   0  0  0  0  0  0  0  0  0  0  0  0
   -3.4151   -1.4777   -3.3228 H   0  0  0  0  0  0  0  0  0  0  0  0
   -4.5622   -2.4097   -2.3459 H   0  0  0  0  0  0  0  0  0  0  0  0
   -4.4671   -0.6490   -2.1698 H   0  0  0  0  0  0  0  0  0  0  0  0
  1  2  1  0  0  0  0
  2  3  1  0  0  0  0
  3  4  2  0  0  0  0
  4  5  2  0  0  0  0
  4  6  2  0  0  0  0
  6  7  1  0  0  0  0
  7  8  1  0  0  0  0
  4  9  1  0  0  0  0
  9 10  1  0  0  0  0
 10 11  1  0  0  0  0
 11 12  1  0  0  0  0
 12 13  2  0  0  0  0
 12 14  2  0  0  0  0
 14 15  1  0  0  0  0
 15 16  1  0  0  0  0
 12 17  2  0  0  0  0
 17 18  1  0  0  0  0
 18 19  1  0  0  0  0
  1 20  1  0  0  0  0
  1 21  1  0  0  0  0
  1 22  1  0  0  0  0
  2 23  1  0  0  0  0
  2 24  1  0  0  0  0
  7 25  1  0  0  0  0
  7 26  1  0  0  0  0
  8 27  1  0  0  0  0
  8 28  1  0  0  0  0
  8 29  1  0  0  0  0
 10 30  1  0  0  0  0
 10 31  1  0  0  0  0
 15 32  1  0  0  0  0
 15 33  1  0  0  0  0
 16 34  1  0  0  0  0
 16 35  1  0  0  0  0
 16 36  1  0  0  0  0
 18 37  1  0  0  0  0
 18 38  1  0  0  0  0
 19 39  1  0  0  0  0
 19 40  1  0  0  0  0
 19 41  1  0  0  0  0
M  END
