 xtb: 6.7.1 (edcfbbe)
          04092505213D

 41 40  0     0  0            999 V2000
    3.3399   -2.9839   -0.8627 C   0  0  0  0  0  0  0  0  0  0  0  0
    3.8627   -1.8527   -1.7201 C   0  0  0  0  0  0  0  0  0  0  0  0
    3.9932   -0.6078   -0.9890 O   0  0  0  0  0  0  0  0  0  0  0  0
    2.8768    0.1144   -0.1537 P   0  0  0  0  0  0  0  0  0  0  0  0
    3.2912    2.0040    0.1464 S   0  0  0  0  0  0  0  0  0  0  0  0
    2.8390   -0.7586    1.1772 O   0  0  0  0  0  0  0  0  0  0  0  0
    2.1530   -0.3562    2.3758 C   0  0  0  0  0  0  0  0  0  0  0  0
    0.9428   -1.2390    2.6114 C   0  0  0  0  0  0  0  0  0  0  0  0
    1.0646   -0.2618   -1.2341 S   0  0  0  0  0  0  0  0  0  0  0  0
    0.2880    1.3536   -1.0258 C   0  0  0  0  0  0  0  0  0  0  0  0
   -0.6343    1.5022    0.5289 S   0  0  0  0  0  0  0  0  0  0  0  0
   -2.2555    0.2816   -0.0646 P   0  0  0  0  0  0  0  0  0  0  0  0
   -2.8654    0.5081   -1.9195 S   0  0  0  0  0  0  0  0  0  0  0  0
   -3.3508    0.5516    1.0506 O   0  0  0  0  0  0  0  0  0  0  0  0
   -4.1723    1.7361    1.0336 C   0  0  0  0  0  0  0  0  0  0  0  0
   -5.3900    1.4716    1.8959 C   0  0  0  0  0  0  0  0  0  0  0  0
   -1.7280   -1.1547    0.3297 O   0  0  0  0  0  0  0  0  0  0  0  0
   -2.2441   -2.3556   -0.2843 C   0  0  0  0  0  0  0  0  0  0  0  0
   -3.6752   -2.6188    0.1318 C   0  0  0  0  0  0  0  0  0  0  0  0
    3.3553   -3.9029   -1.4403 H   0  0  0  0  0  0  0  0  0  0  0  0
    3.9589   -3.1023    0.0227 H   0  0  0  0  0  0  0  0  0  0  0  0
    2.3168   -2.7762   -0.5551 H   0  0  0  0  0  0  0  0  0  0  0  0
    3.2057   -1.6752   -2.5753 H   0  0  0  0  0  0  0  0  0  0  0  0
    4.8797   -2.0426   -2.0663 H   0  0  0  0  0  0  0  0  0  0  0  0
    2.8849   -0.4717    3.1780 H   0  0  0  0  0  0  0  0  0  0  0  0
    1.8725    0.6999    2.2988 H   0  0  0  0  0  0  0  0  0  0  0  0
    0.2166   -1.1212    1.8107 H   0  0  0  0  0  0  0  0  0  0  0  0
    1.2476   -2.2804    2.6603 H   0  0  0  0  0  0  0  0  0  0  0  0
    0.4758   -0.9559    3.5491 H   0  0  0  0  0  0  0  0  0  0  0  0
   -0.3996    1.4876   -1.8613 H   0  0  0  0  0  0  0  0  0  0  0  0
    1.0591    2.1255   -1.0099 H   0  0  0  0  0  0  0  0  0  0  0  0
   -3.5795    2.5679    1.4237 H   0  0  0  0  0  0  0  0  0  0  0  0
   -4.4532    1.9528   -0.0029 H   0  0  0  0  0  0  0  0  0  0  0  0
   -6.0042    2.3655    1.9275 H   0  0  0  0  0  0  0  0  0  0  0  0
   -5.9717    0.6520    1.4837 H   0  0  0  0  0  0  0  0  0  0  0  0
   -5.0793    1.2118    2.9035 H   0  0  0  0  0  0  0  0  0  0  0  0
   -2.1659   -2.2498   -1.3708 H   0  0  0  0  0  0  0  0  0  0  0  0
   -1.5680   -3.1379    0.0618 H   0  0  0  0  0  0  0  0  0  0  0  0
   -3.7534   -2.6409    1.2154 H   0  0  0  0  0  0  0  0  0  0  0  0
   -4.3202   -1.8291   -0.2520 H   0  0  0  0  0  0  0  0  0  0  0  0
   -4.0014   -3.5702   -0.2764 H   0  0  0  0  0  0  0  0  0  0  0  0
  1  2  1  0  0  0  0
  2  3  1  0  0  0  0
  3  4  2  0  0  0  0
  4  5  2  0  0  0  0
  4  6  2  0  0  0  0
  6  7  1  0  0  0  0
  7  8  1  0  0  0  0
  4  9  1  0  0  0  0
  9 10  1  0  0  0  0
 10 11  1  0  0  0  0
 11 12  1  0  0  0  0
 12 13  2  0  0  0  0
 12 14  2  0  0  0  0
 14 15  1  0  0  0  0
 15 16  1  0  0  0  0
 12 17  2  0  0  0  0
 17 18  1  0  0  0  0
 18 19  1  0  0  0  0
  1 20  1  0  0  0  0
  1 21  1  0  0  0  0
  1 22  1  0  0  0  0
  2 23  1  0  0  0  0
  2 24  1  0  0  0  0
  7 25  1  0  0  0  0
  7 26  1  0  0  0  0
  8 27  1  0  0  0  0
  8 28  1  0  0  0  0
  8 29  1  0  0  0  0
 10 30  1  0  0  0  0
 10 31  1  0  0  0  0
 15 32  1  0  0  0  0
 15 33  1  0  0  0  0
 16 34  1  0  0  0  0
 16 35  1  0  0  0  0
 16 36  1  0  0  0  0
 18 37  1  0  0  0  0
 18 38  1  0  0  0  0
 19 39  1  0  0  0  0
 19 40  1  0  0  0  0
 19 41  1  0  0  0  0
M  END
