 xtb: 6.7.1 (edcfbbe)
          04092505203D

 41 40  0     0  0            999 V2000
    3.5777   -2.0955   -1.9863 C   0  0  0  0  0  0  0  0  0  0  0  0
    4.0430   -0.6822   -1.6975 C   0  0  0  0  0  0  0  0  0  0  0  0
    3.5802   -0.2045   -0.4255 O   0  0  0  0  0  0  0  0  0  0  0  0
    2.0450    0.0926   -0.1089 P   0  0  0  0  0  0  0  0  0  0  0  0
    1.0958    0.9028   -1.6241 S   0  0  0  0  0  0  0  0  0  0  0  0
    2.1911    0.9002    1.2393 O   0  0  0  0  0  0  0  0  0  0  0  0
    2.3121    2.3343    1.2985 C   0  0  0  0  0  0  0  0  0  0  0  0
    3.5533    2.8387    0.5934 C   0  0  0  0  0  0  0  0  0  0  0  0
    1.2932   -1.7208    0.6725 S   0  0  0  0  0  0  0  0  0  0  0  0
   -0.0628   -2.0574   -0.5061 C   0  0  0  0  0  0  0  0  0  0  0  0
   -1.7090   -2.0852    0.2557 S   0  0  0  0  0  0  0  0  0  0  0  0
   -2.1396   -0.0313    0.3246 P   0  0  0  0  0  0  0  0  0  0  0  0
   -0.9998    1.2064    1.3483 S   0  0  0  0  0  0  0  0  0  0  0  0
   -3.6610    0.0221    0.7858 O   0  0  0  0  0  0  0  0  0  0  0  0
   -4.0460    0.1194    2.1672 C   0  0  0  0  0  0  0  0  0  0  0  0
   -3.6954   -1.1364    2.9384 C   0  0  0  0  0  0  0  0  0  0  0  0
   -2.2593    0.2482   -1.2269 O   0  0  0  0  0  0  0  0  0  0  0  0
   -2.4769    1.5787   -1.7472 C   0  0  0  0  0  0  0  0  0  0  0  0
   -2.1925    1.5463   -3.2336 C   0  0  0  0  0  0  0  0  0  0  0  0
    3.8205   -2.7501   -1.1531 H   0  0  0  0  0  0  0  0  0  0  0  0
    2.4998   -2.1074   -2.1425 H   0  0  0  0  0  0  0  0  0  0  0  0
    4.0669   -2.4572   -2.8850 H   0  0  0  0  0  0  0  0  0  0  0  0
    3.6899    0.0043   -2.4742 H   0  0  0  0  0  0  0  0  0  0  0  0
    5.1295   -0.6250   -1.6183 H   0  0  0  0  0  0  0  0  0  0  0  0
    1.4055    2.7724    0.8680 H   0  0  0  0  0  0  0  0  0  0  0  0
    2.3359    2.5435    2.3689 H   0  0  0  0  0  0  0  0  0  0  0  0
    4.4346    2.3344    0.9815 H   0  0  0  0  0  0  0  0  0  0  0  0
    3.4784    2.6466   -0.4766 H   0  0  0  0  0  0  0  0  0  0  0  0
    3.6455    3.9083    0.7539 H   0  0  0  0  0  0  0  0  0  0  0  0
    0.0866   -3.0590   -0.8999 H   0  0  0  0  0  0  0  0  0  0  0  0
   -0.0443   -1.3043   -1.2982 H   0  0  0  0  0  0  0  0  0  0  0  0
   -3.5490    0.9921    2.6038 H   0  0  0  0  0  0  0  0  0  0  0  0
   -5.1234    0.2847    2.1284 H   0  0  0  0  0  0  0  0  0  0  0  0
   -4.0954   -1.0664    3.9448 H   0  0  0  0  0  0  0  0  0  0  0  0
   -4.1077   -2.0116    2.4426 H   0  0  0  0  0  0  0  0  0  0  0  0
   -2.6124   -1.2453    2.9954 H   0  0  0  0  0  0  0  0  0  0  0  0
   -3.5125    1.8566   -1.5375 H   0  0  0  0  0  0  0  0  0  0  0  0
   -1.8053    2.2701   -1.2268 H   0  0  0  0  0  0  0  0  0  0  0  0
   -2.8142    0.7958   -3.7125 H   0  0  0  0  0  0  0  0  0  0  0  0
   -2.4064    2.5217   -3.6577 H   0  0  0  0  0  0  0  0  0  0  0  0
   -1.1460    1.3045   -3.4033 H   0  0  0  0  0  0  0  0  0  0  0  0
  1  2  1  0  0  0  0
  2  3  1  0  0  0  0
  3  4  2  0  0  0  0
  4  5  2  0  0  0  0
  4  6  2  0  0  0  0
  6  7  1  0  0  0  0
  7  8  1  0  0  0  0
  4  9  1  0  0  0  0
  9 10  1  0  0  0  0
 10 11  1  0  0  0  0
 11 12  1  0  0  0  0
 12 13  2  0  0  0  0
 12 14  2  0  0  0  0
 14 15  1  0  0  0  0
 15 16  1  0  0  0  0
 12 17  2  0  0  0  0
 17 18  1  0  0  0  0
 18 19  1  0  0  0  0
  1 20  1  0  0  0  0
  1 21  1  0  0  0  0
  1 22  1  0  0  0  0
  2 23  1  0  0  0  0
  2 24  1  0  0  0  0
  7 25  1  0  0  0  0
  7 26  1  0  0  0  0
  8 27  1  0  0  0  0
  8 28  1  0  0  0  0
  8 29  1  0  0  0  0
 10 30  1  0  0  0  0
 10 31  1  0  0  0  0
 15 32  1  0  0  0  0
 15 33  1  0  0  0  0
 16 34  1  0  0  0  0
 16 35  1  0  0  0  0
 16 36  1  0  0  0  0
 18 37  1  0  0  0  0
 18 38  1  0  0  0  0
 19 39  1  0  0  0  0
 19 40  1  0  0  0  0
 19 41  1  0  0  0  0
M  END
