 xtb: 6.7.1 (edcfbbe)
          04092505203D

 41 40  0     0  0            999 V2000
    2.7161   -0.1533    3.3684 C   0  0  0  0  0  0  0  0  0  0  0  0
    1.4323   -0.5128    2.6506 C   0  0  0  0  0  0  0  0  0  0  0  0
    1.3154    0.1821    1.3941 O   0  0  0  0  0  0  0  0  0  0  0  0
    2.2223   -0.1636    0.1429 P   0  0  0  0  0  0  0  0  0  0  0  0
    2.8830   -2.0076    0.0147 S   0  0  0  0  0  0  0  0  0  0  0  0
    3.3472    0.9522    0.2576 O   0  0  0  0  0  0  0  0  0  0  0  0
    4.5819    0.8840   -0.4777 C   0  0  0  0  0  0  0  0  0  0  0  0
    4.3718    1.0688   -1.9667 C   0  0  0  0  0  0  0  0  0  0  0  0
    0.9658    0.5247   -1.4106 S   0  0  0  0  0  0  0  0  0  0  0  0
    0.0929   -1.0426   -1.6811 C   0  0  0  0  0  0  0  0  0  0  0  0
   -0.8449   -1.5996   -0.2325 S   0  0  0  0  0  0  0  0  0  0  0  0
   -2.1571    0.0616   -0.1365 P   0  0  0  0  0  0  0  0  0  0  0  0
   -2.7156    0.7981   -1.8689 S   0  0  0  0  0  0  0  0  0  0  0  0
   -1.3958    1.0528    0.8301 O   0  0  0  0  0  0  0  0  0  0  0  0
   -1.4536    2.4837    0.6773 C   0  0  0  0  0  0  0  0  0  0  0  0
   -2.7699    3.0276    1.1911 C   0  0  0  0  0  0  0  0  0  0  0  0
   -3.2924   -0.4584    0.8440 O   0  0  0  0  0  0  0  0  0  0  0  0
   -4.2225   -1.5008    0.4865 C   0  0  0  0  0  0  0  0  0  0  0  0
   -5.4648   -0.9279   -0.1682 C   0  0  0  0  0  0  0  0  0  0  0  0
    2.7270   -0.6248    4.3460 H   0  0  0  0  0  0  0  0  0  0  0  0
    3.5706   -0.5090    2.7937 H   0  0  0  0  0  0  0  0  0  0  0  0
    2.7938    0.9247    3.4829 H   0  0  0  0  0  0  0  0  0  0  0  0
    0.5479   -0.1979    3.2067 H   0  0  0  0  0  0  0  0  0  0  0  0
    1.3818   -1.5898    2.4577 H   0  0  0  0  0  0  0  0  0  0  0  0
    5.1841    1.6879   -0.0522 H   0  0  0  0  0  0  0  0  0  0  0  0
    5.0518   -0.0835   -0.2738 H   0  0  0  0  0  0  0  0  0  0  0  0
    5.3361    1.1315   -2.4607 H   0  0  0  0  0  0  0  0  0  0  0  0
    3.8211    0.2217   -2.3737 H   0  0  0  0  0  0  0  0  0  0  0  0
    3.8064    1.9772   -2.1595 H   0  0  0  0  0  0  0  0  0  0  0  0
    0.8117   -1.8308   -1.9021 H   0  0  0  0  0  0  0  0  0  0  0  0
   -0.5871   -0.8748   -2.5158 H   0  0  0  0  0  0  0  0  0  0  0  0
   -0.6022    2.8478    1.2541 H   0  0  0  0  0  0  0  0  0  0  0  0
   -1.3148    2.7320   -0.3805 H   0  0  0  0  0  0  0  0  0  0  0  0
   -2.7657    4.1109    1.1239 H   0  0  0  0  0  0  0  0  0  0  0  0
   -3.5862    2.6360    0.5852 H   0  0  0  0  0  0  0  0  0  0  0  0
   -2.9237    2.7263    2.2237 H   0  0  0  0  0  0  0  0  0  0  0  0
   -3.7240   -2.2178   -0.1725 H   0  0  0  0  0  0  0  0  0  0  0  0
   -4.4613   -1.9858    1.4349 H   0  0  0  0  0  0  0  0  0  0  0  0
   -5.2076   -0.4357   -1.1034 H   0  0  0  0  0  0  0  0  0  0  0  0
   -6.1636   -1.7326   -0.3726 H   0  0  0  0  0  0  0  0  0  0  0  0
   -5.9342   -0.2032    0.4912 H   0  0  0  0  0  0  0  0  0  0  0  0
  1  2  1  0  0  0  0
  2  3  1  0  0  0  0
  3  4  2  0  0  0  0
  4  5  2  0  0  0  0
  4  6  2  0  0  0  0
  6  7  1  0  0  0  0
  7  8  1  0  0  0  0
  4  9  1  0  0  0  0
  9 10  1  0  0  0  0
 10 11  1  0  0  0  0
 11 12  1  0  0  0  0
 12 13  2  0  0  0  0
 12 14  2  0  0  0  0
 14 15  1  0  0  0  0
 15 16  1  0  0  0  0
 12 17  2  0  0  0  0
 17 18  1  0  0  0  0
 18 19  1  0  0  0  0
  1 20  1  0  0  0  0
  1 21  1  0  0  0  0
  1 22  1  0  0  0  0
  2 23  1  0  0  0  0
  2 24  1  0  0  0  0
  7 25  1  0  0  0  0
  7 26  1  0  0  0  0
  8 27  1  0  0  0  0
  8 28  1  0  0  0  0
  8 29  1  0  0  0  0
 10 30  1  0  0  0  0
 10 31  1  0  0  0  0
 15 32  1  0  0  0  0
 15 33  1  0  0  0  0
 16 34  1  0  0  0  0
 16 35  1  0  0  0  0
 16 36  1  0  0  0  0
 18 37  1  0  0  0  0
 18 38  1  0  0  0  0
 19 39  1  0  0  0  0
 19 40  1  0  0  0  0
 19 41  1  0  0  0  0
M  END
