 xtb: 6.7.1 (edcfbbe)
          04092505213D

 41 40  0     0  0            999 V2000
    5.1937   -1.1134   -0.5680 C   0  0  0  0  0  0  0  0  0  0  0  0
    4.5525   -0.2574   -1.6375 C   0  0  0  0  0  0  0  0  0  0  0  0
    3.5311    0.6347   -1.1213 O   0  0  0  0  0  0  0  0  0  0  0  0
    2.3240    0.2496   -0.1929 P   0  0  0  0  0  0  0  0  0  0  0  0
    0.9381    1.6380   -0.2496 S   0  0  0  0  0  0  0  0  0  0  0  0
    3.0298    0.0380    1.2164 O   0  0  0  0  0  0  0  0  0  0  0  0
    2.2872   -0.2486    2.4177 C   0  0  0  0  0  0  0  0  0  0  0  0
    2.1003    1.0147    3.2359 C   0  0  0  0  0  0  0  0  0  0  0  0
    1.7281   -1.7172   -0.7710 S   0  0  0  0  0  0  0  0  0  0  0  0
   -0.0274   -1.4740   -1.0958 C   0  0  0  0  0  0  0  0  0  0  0  0
   -0.9887   -1.1892    0.4252 S   0  0  0  0  0  0  0  0  0  0  0  0
   -2.3174    0.3432   -0.2384 P   0  0  0  0  0  0  0  0  0  0  0  0
   -2.1518    0.7974   -2.1376 S   0  0  0  0  0  0  0  0  0  0  0  0
   -2.1711    1.6242    0.6588 O   0  0  0  0  0  0  0  0  0  0  0  0
   -2.6127    1.7569    2.0329 C   0  0  0  0  0  0  0  0  0  0  0  0
   -1.9165    0.7869    2.9631 C   0  0  0  0  0  0  0  0  0  0  0  0
   -3.7339   -0.1989    0.2546 O   0  0  0  0  0  0  0  0  0  0  0  0
   -4.3001   -1.4704   -0.1079 C   0  0  0  0  0  0  0  0  0  0  0  0
   -4.9160   -1.4492   -1.4930 C   0  0  0  0  0  0  0  0  0  0  0  0
    5.5720   -0.4899    0.2376 H   0  0  0  0  0  0  0  0  0  0  0  0
    4.4680   -1.8166   -0.1633 H   0  0  0  0  0  0  0  0  0  0  0  0
    6.0147   -1.6702   -1.0092 H   0  0  0  0  0  0  0  0  0  0  0  0
    4.0942   -0.8788   -2.4108 H   0  0  0  0  0  0  0  0  0  0  0  0
    5.2699    0.4285   -2.0907 H   0  0  0  0  0  0  0  0  0  0  0  0
    1.3228   -0.6961    2.1558 H   0  0  0  0  0  0  0  0  0  0  0  0
    2.8918   -0.9824    2.9541 H   0  0  0  0  0  0  0  0  0  0  0  0
    1.5272    1.7460    2.6686 H   0  0  0  0  0  0  0  0  0  0  0  0
    1.5741    0.7763    4.1547 H   0  0  0  0  0  0  0  0  0  0  0  0
    3.0670    1.4484    3.4759 H   0  0  0  0  0  0  0  0  0  0  0  0
   -0.3673   -2.3967   -1.5600 H   0  0  0  0  0  0  0  0  0  0  0  0
   -0.1824   -0.6183   -1.7585 H   0  0  0  0  0  0  0  0  0  0  0  0
   -2.3610    2.7918    2.2704 H   0  0  0  0  0  0  0  0  0  0  0  0
   -3.6956    1.6204    2.0555 H   0  0  0  0  0  0  0  0  0  0  0  0
   -2.2063    1.0064    3.9858 H   0  0  0  0  0  0  0  0  0  0  0  0
   -2.1969   -0.2382    2.7254 H   0  0  0  0  0  0  0  0  0  0  0  0
   -0.8387    0.8876    2.8661 H   0  0  0  0  0  0  0  0  0  0  0  0
   -3.5228   -2.2368   -0.0344 H   0  0  0  0  0  0  0  0  0  0  0  0
   -5.0585   -1.6453    0.6580 H   0  0  0  0  0  0  0  0  0  0  0  0
   -4.1541   -1.2603   -2.2463 H   0  0  0  0  0  0  0  0  0  0  0  0
   -5.3837   -2.4083   -1.6910 H   0  0  0  0  0  0  0  0  0  0  0  0
   -5.6641   -0.6636   -1.5586 H   0  0  0  0  0  0  0  0  0  0  0  0
  1  2  1  0  0  0  0
  2  3  1  0  0  0  0
  3  4  2  0  0  0  0
  4  5  2  0  0  0  0
  4  6  2  0  0  0  0
  6  7  1  0  0  0  0
  7  8  1  0  0  0  0
  4  9  1  0  0  0  0
  9 10  1  0  0  0  0
 10 11  1  0  0  0  0
 11 12  1  0  0  0  0
 12 13  2  0  0  0  0
 12 14  2  0  0  0  0
 14 15  1  0  0  0  0
 15 16  1  0  0  0  0
 12 17  2  0  0  0  0
 17 18  1  0  0  0  0
 18 19  1  0  0  0  0
  1 20  1  0  0  0  0
  1 21  1  0  0  0  0
  1 22  1  0  0  0  0
  2 23  1  0  0  0  0
  2 24  1  0  0  0  0
  7 25  1  0  0  0  0
  7 26  1  0  0  0  0
  8 27  1  0  0  0  0
  8 28  1  0  0  0  0
  8 29  1  0  0  0  0
 10 30  1  0  0  0  0
 10 31  1  0  0  0  0
 15 32  1  0  0  0  0
 15 33  1  0  0  0  0
 16 34  1  0  0  0  0
 16 35  1  0  0  0  0
 16 36  1  0  0  0  0
 18 37  1  0  0  0  0
 18 38  1  0  0  0  0
 19 39  1  0  0  0  0
 19 40  1  0  0  0  0
 19 41  1  0  0  0  0
M  END
