 xtb: 6.7.1 (edcfbbe)
          04092505213D

 41 40  0     0  0            999 V2000
    5.0063    1.4796   -0.2971 C   0  0  0  0  0  0  0  0  0  0  0  0
    4.8275    0.0139   -0.6343 C   0  0  0  0  0  0  0  0  0  0  0  0
    3.7224   -0.5913    0.0632 O   0  0  0  0  0  0  0  0  0  0  0  0
    2.2364   -0.0321    0.0864 P   0  0  0  0  0  0  0  0  0  0  0  0
    1.8721    1.4135    1.3654 S   0  0  0  0  0  0  0  0  0  0  0  0
    1.3954   -1.3534    0.3489 O   0  0  0  0  0  0  0  0  0  0  0  0
    1.0552   -1.7964    1.6723 C   0  0  0  0  0  0  0  0  0  0  0  0
    2.2490   -2.4141    2.3679 C   0  0  0  0  0  0  0  0  0  0  0  0
    1.8222    0.3378   -1.9469 S   0  0  0  0  0  0  0  0  0  0  0  0
    0.0920    0.8261   -1.7777 C   0  0  0  0  0  0  0  0  0  0  0  0
   -0.9920   -0.6503   -1.6685 S   0  0  0  0  0  0  0  0  0  0  0  0
   -2.2743   -0.1448   -0.0822 P   0  0  0  0  0  0  0  0  0  0  0  0
   -3.4451   -1.6186    0.4622 S   0  0  0  0  0  0  0  0  0  0  0  0
   -3.0392    1.1978   -0.4908 O   0  0  0  0  0  0  0  0  0  0  0  0
   -4.3154    1.1640   -1.1504 C   0  0  0  0  0  0  0  0  0  0  0  0
   -4.1885    0.7353   -2.5981 C   0  0  0  0  0  0  0  0  0  0  0  0
   -1.2225    0.4203    0.9650 O   0  0  0  0  0  0  0  0  0  0  0  0
   -1.5994    1.2743    2.0711 C   0  0  0  0  0  0  0  0  0  0  0  0
   -2.3044    0.5065    3.1689 C   0  0  0  0  0  0  0  0  0  0  0  0
    5.1029    1.6140    0.7778 H   0  0  0  0  0  0  0  0  0  0  0  0
    5.8989    1.8546   -0.7873 H   0  0  0  0  0  0  0  0  0  0  0  0
    4.1457    2.0516   -0.6418 H   0  0  0  0  0  0  0  0  0  0  0  0
    5.6866   -0.5780   -0.3137 H   0  0  0  0  0  0  0  0  0  0  0  0
    4.6644   -0.1193   -1.7073 H   0  0  0  0  0  0  0  0  0  0  0  0
    0.6750   -0.9397    2.2391 H   0  0  0  0  0  0  0  0  0  0  0  0
    0.2491   -2.5168    1.5169 H   0  0  0  0  0  0  0  0  0  0  0  0
    1.9440   -2.7987    3.3361 H   0  0  0  0  0  0  0  0  0  0  0  0
    2.6550   -3.2229    1.7665 H   0  0  0  0  0  0  0  0  0  0  0  0
    3.0206   -1.6580    2.5082 H   0  0  0  0  0  0  0  0  0  0  0  0
   -0.1629    1.3740   -2.6804 H   0  0  0  0  0  0  0  0  0  0  0  0
   -0.0300    1.4345   -0.8824 H   0  0  0  0  0  0  0  0  0  0  0  0
   -4.9693    0.4774   -0.6031 H   0  0  0  0  0  0  0  0  0  0  0  0
   -4.6883    2.1853   -1.0616 H   0  0  0  0  0  0  0  0  0  0  0  0
   -5.1619    0.7906   -3.0746 H   0  0  0  0  0  0  0  0  0  0  0  0
   -3.4922    1.3807   -3.1270 H   0  0  0  0  0  0  0  0  0  0  0  0
   -3.8279   -0.2916   -2.6504 H   0  0  0  0  0  0  0  0  0  0  0  0
   -0.6459    1.6844    2.4132 H   0  0  0  0  0  0  0  0  0  0  0  0
   -2.2277    2.0806    1.6879 H   0  0  0  0  0  0  0  0  0  0  0  0
   -3.2473    0.1025    2.8049 H   0  0  0  0  0  0  0  0  0  0  0  0
   -1.6856   -0.3186    3.5132 H   0  0  0  0  0  0  0  0  0  0  0  0
   -2.5006    1.1770    3.9995 H   0  0  0  0  0  0  0  0  0  0  0  0
  1  2  1  0  0  0  0
  2  3  1  0  0  0  0
  3  4  2  0  0  0  0
  4  5  2  0  0  0  0
  4  6  2  0  0  0  0
  6  7  1  0  0  0  0
  7  8  1  0  0  0  0
  4  9  1  0  0  0  0
  9 10  1  0  0  0  0
 10 11  1  0  0  0  0
 11 12  1  0  0  0  0
 12 13  2  0  0  0  0
 12 14  2  0  0  0  0
 14 15  1  0  0  0  0
 15 16  1  0  0  0  0
 12 17  1  0  0  0  0
 17 18  1  0  0  0  0
 18 19  1  0  0  0  0
  1 20  1  0  0  0  0
  1 21  1  0  0  0  0
  1 22  1  0  0  0  0
  2 23  1  0  0  0  0
  2 24  1  0  0  0  0
  7 25  1  0  0  0  0
  7 26  1  0  0  0  0
  8 27  1  0  0  0  0
  8 28  1  0  0  0  0
  8 29  1  0  0  0  0
 10 30  1  0  0  0  0
 10 31  1  0  0  0  0
 15 32  1  0  0  0  0
 15 33  1  0  0  0  0
 16 34  1  0  0  0  0
 16 35  1  0  0  0  0
 16 36  1  0  0  0  0
 18 37  1  0  0  0  0
 18 38  1  0  0  0  0
 19 39  1  0  0  0  0
 19 40  1  0  0  0  0
 19 41  1  0  0  0  0
M  END
