 xtb: 6.7.1 (edcfbbe)
          04092505213D

 41 40  0     0  0            999 V2000
    4.8761    0.5346   -2.0218 C   0  0  0  0  0  0  0  0  0  0  0  0
    4.1237   -0.7809   -2.0008 C   0  0  0  0  0  0  0  0  0  0  0  0
    3.3848   -0.9508   -0.7808 O   0  0  0  0  0  0  0  0  0  0  0  0
    2.0579   -0.1125   -0.4525 P   0  0  0  0  0  0  0  0  0  0  0  0
    1.0221    0.2865   -2.0650 S   0  0  0  0  0  0  0  0  0  0  0  0
    2.5127    1.2017    0.3011 O   0  0  0  0  0  0  0  0  0  0  0  0
    2.8589    1.3137    1.6991 C   0  0  0  0  0  0  0  0  0  0  0  0
    4.0138    0.4143    2.0855 C   0  0  0  0  0  0  0  0  0  0  0  0
    1.2447   -1.4375    0.9725 S   0  0  0  0  0  0  0  0  0  0  0  0
   -0.1081   -2.1295   -0.0287 C   0  0  0  0  0  0  0  0  0  0  0  0
   -1.7575   -1.8056    0.6496 S   0  0  0  0  0  0  0  0  0  0  0  0
   -1.9558    0.2853    0.2880 P   0  0  0  0  0  0  0  0  0  0  0  0
   -0.6172    1.4825    1.0663 S   0  0  0  0  0  0  0  0  0  0  0  0
   -3.4293    0.5334    0.8226 O   0  0  0  0  0  0  0  0  0  0  0  0
   -3.7239    0.5378    2.2356 C   0  0  0  0  0  0  0  0  0  0  0  0
   -5.0690    1.2076    2.4287 C   0  0  0  0  0  0  0  0  0  0  0  0
   -2.0934    0.4715   -1.2648 O   0  0  0  0  0  0  0  0  0  0  0  0
   -3.0443   -0.2425   -2.0948 C   0  0  0  0  0  0  0  0  0  0  0  0
   -4.3047    0.5737   -2.2903 C   0  0  0  0  0  0  0  0  0  0  0  0
    5.4346    0.6175   -2.9489 H   0  0  0  0  0  0  0  0  0  0  0  0
    4.1685    1.3616   -1.9578 H   0  0  0  0  0  0  0  0  0  0  0  0
    5.5621    0.5933   -1.1810 H   0  0  0  0  0  0  0  0  0  0  0  0
    4.7997   -1.6367   -2.0230 H   0  0  0  0  0  0  0  0  0  0  0  0
    3.4244   -0.8353   -2.8417 H   0  0  0  0  0  0  0  0  0  0  0  0
    3.1095    2.3700    1.8087 H   0  0  0  0  0  0  0  0  0  0  0  0
    1.9643    1.0935    2.2884 H   0  0  0  0  0  0  0  0  0  0  0  0
    4.2453    0.5702    3.1345 H   0  0  0  0  0  0  0  0  0  0  0  0
    3.7462   -0.6304    1.9333 H   0  0  0  0  0  0  0  0  0  0  0  0
    4.8903    0.6458    1.4858 H   0  0  0  0  0  0  0  0  0  0  0  0
   -0.0045   -3.2113   -0.0307 H   0  0  0  0  0  0  0  0  0  0  0  0
   -0.0402   -1.7169   -1.0391 H   0  0  0  0  0  0  0  0  0  0  0  0
   -3.7385   -0.4989    2.5813 H   0  0  0  0  0  0  0  0  0  0  0  0
   -2.9261    1.0792    2.7544 H   0  0  0  0  0  0  0  0  0  0  0  0
   -5.8379    0.6616    1.8902 H   0  0  0  0  0  0  0  0  0  0  0  0
   -5.3107    1.2190    3.4863 H   0  0  0  0  0  0  0  0  0  0  0  0
   -5.0343    2.2283    2.0581 H   0  0  0  0  0  0  0  0  0  0  0  0
   -2.5124   -0.3933   -3.0365 H   0  0  0  0  0  0  0  0  0  0  0  0
   -3.2659   -1.2076   -1.6304 H   0  0  0  0  0  0  0  0  0  0  0  0
   -4.0571    1.5450   -2.7098 H   0  0  0  0  0  0  0  0  0  0  0  0
   -4.9649    0.0460   -2.9715 H   0  0  0  0  0  0  0  0  0  0  0  0
   -4.8093    0.7202   -1.3391 H   0  0  0  0  0  0  0  0  0  0  0  0
  1  2  1  0  0  0  0
  2  3  1  0  0  0  0
  3  4  1  0  0  0  0
  4  5  2  0  0  0  0
  4  6  2  0  0  0  0
  6  7  1  0  0  0  0
  7  8  1  0  0  0  0
  4  9  1  0  0  0  0
  9 10  1  0  0  0  0
 10 11  1  0  0  0  0
 11 12  1  0  0  0  0
 12 13  2  0  0  0  0
 12 14  2  0  0  0  0
 14 15  1  0  0  0  0
 15 16  1  0  0  0  0
 12 17  2  0  0  0  0
 17 18  1  0  0  0  0
 18 19  1  0  0  0  0
  1 20  1  0  0  0  0
  1 21  1  0  0  0  0
  1 22  1  0  0  0  0
  2 23  1  0  0  0  0
  2 24  1  0  0  0  0
  7 25  1  0  0  0  0
  7 26  1  0  0  0  0
  8 27  1  0  0  0  0
  8 28  1  0  0  0  0
  8 29  1  0  0  0  0
 10 30  1  0  0  0  0
 10 31  1  0  0  0  0
 15 32  1  0  0  0  0
 15 33  1  0  0  0  0
 16 34  1  0  0  0  0
 16 35  1  0  0  0  0
 16 36  1  0  0  0  0
 18 37  1  0  0  0  0
 18 38  1  0  0  0  0
 19 39  1  0  0  0  0
 19 40  1  0  0  0  0
 19 41  1  0  0  0  0
M  END
