 xtb: 6.7.1 (edcfbbe)
          04092505213D

 41 40  0     0  0            999 V2000
    1.2203   -0.8296   -2.4001 C   0  0  0  0  0  0  0  0  0  0  0  0
    2.3025   -1.4799   -1.5646 C   0  0  0  0  0  0  0  0  0  0  0  0
    2.1641   -1.1771   -0.1691 O   0  0  0  0  0  0  0  0  0  0  0  0
    2.4545    0.2771    0.4214 P   0  0  0  0  0  0  0  0  0  0  0  0
    3.8062    1.3172   -0.5401 S   0  0  0  0  0  0  0  0  0  0  0  0
    2.7750   -0.0551    1.9421 O   0  0  0  0  0  0  0  0  0  0  0  0
    4.1221   -0.3006    2.3961 C   0  0  0  0  0  0  0  0  0  0  0  0
    4.6800   -1.5958    1.8447 C   0  0  0  0  0  0  0  0  0  0  0  0
    0.5694    1.1768    0.7142 S   0  0  0  0  0  0  0  0  0  0  0  0
   -0.2608   -0.1815    1.6053 C   0  0  0  0  0  0  0  0  0  0  0  0
   -1.1344   -1.3538    0.5339 S   0  0  0  0  0  0  0  0  0  0  0  0
   -2.5003   -0.0260   -0.3911 P   0  0  0  0  0  0  0  0  0  0  0  0
   -1.9467    1.0516   -1.9397 S   0  0  0  0  0  0  0  0  0  0  0  0
   -3.0030    0.7709    0.8798 O   0  0  0  0  0  0  0  0  0  0  0  0
   -3.4374    2.1475    0.8453 C   0  0  0  0  0  0  0  0  0  0  0  0
   -2.5911    2.9671    1.7990 C   0  0  0  0  0  0  0  0  0  0  0  0
   -3.7623   -0.9482   -0.6956 O   0  0  0  0  0  0  0  0  0  0  0  0
   -3.9108   -1.6680   -1.9298 C   0  0  0  0  0  0  0  0  0  0  0  0
   -2.9667   -2.8511   -2.0018 C   0  0  0  0  0  0  0  0  0  0  0  0
    1.3413   -1.1117   -3.4408 H   0  0  0  0  0  0  0  0  0  0  0  0
    0.2346   -1.1392   -2.0606 H   0  0  0  0  0  0  0  0  0  0  0  0
    1.2850    0.2566   -2.3231 H   0  0  0  0  0  0  0  0  0  0  0  0
    3.2892   -1.1411   -1.8972 H   0  0  0  0  0  0  0  0  0  0  0  0
    2.2432   -2.5681   -1.6065 H   0  0  0  0  0  0  0  0  0  0  0  0
    4.7463    0.5468    2.0961 H   0  0  0  0  0  0  0  0  0  0  0  0
    4.0286   -0.3274    3.4825 H   0  0  0  0  0  0  0  0  0  0  0  0
    4.8081   -1.5139    0.7662 H   0  0  0  0  0  0  0  0  0  0  0  0
    5.6461   -1.7920    2.2992 H   0  0  0  0  0  0  0  0  0  0  0  0
    4.0049   -2.4203    2.0583 H   0  0  0  0  0  0  0  0  0  0  0  0
   -0.9757    0.2865    2.2767 H   0  0  0  0  0  0  0  0  0  0  0  0
    0.4797   -0.7573    2.1527 H   0  0  0  0  0  0  0  0  0  0  0  0
   -3.3485    2.5242   -0.1791 H   0  0  0  0  0  0  0  0  0  0  0  0
   -4.4874    2.1418    1.1431 H   0  0  0  0  0  0  0  0  0  0  0  0
   -2.9450    3.9929    1.7948 H   0  0  0  0  0  0  0  0  0  0  0  0
   -2.6654    2.5680    2.8067 H   0  0  0  0  0  0  0  0  0  0  0  0
   -1.5488    2.9504    1.4841 H   0  0  0  0  0  0  0  0  0  0  0  0
   -4.9548   -1.9838   -1.9299 H   0  0  0  0  0  0  0  0  0  0  0  0
   -3.7306   -0.9755   -2.7590 H   0  0  0  0  0  0  0  0  0  0  0  0
   -3.0999   -3.4936   -1.1355 H   0  0  0  0  0  0  0  0  0  0  0  0
   -3.1629   -3.4164   -2.9071 H   0  0  0  0  0  0  0  0  0  0  0  0
   -1.9351   -2.5008   -2.0196 H   0  0  0  0  0  0  0  0  0  0  0  0
  1  2  1  0  0  0  0
  2  3  1  0  0  0  0
  3  4  2  0  0  0  0
  4  5  2  0  0  0  0
  4  6  2  0  0  0  0
  6  7  1  0  0  0  0
  7  8  1  0  0  0  0
  4  9  1  0  0  0  0
  9 10  1  0  0  0  0
 10 11  1  0  0  0  0
 11 12  1  0  0  0  0
 12 13  2  0  0  0  0
 12 14  2  0  0  0  0
 14 15  1  0  0  0  0
 15 16  1  0  0  0  0
 12 17  2  0  0  0  0
 17 18  1  0  0  0  0
 18 19  1  0  0  0  0
  1 20  1  0  0  0  0
  1 21  1  0  0  0  0
  1 22  1  0  0  0  0
  2 23  1  0  0  0  0
  2 24  1  0  0  0  0
  7 25  1  0  0  0  0
  7 26  1  0  0  0  0
  8 27  1  0  0  0  0
  8 28  1  0  0  0  0
  8 29  1  0  0  0  0
 10 30  1  0  0  0  0
 10 31  1  0  0  0  0
 15 32  1  0  0  0  0
 15 33  1  0  0  0  0
 16 34  1  0  0  0  0
 16 35  1  0  0  0  0
 16 36  1  0  0  0  0
 18 37  1  0  0  0  0
 18 38  1  0  0  0  0
 19 39  1  0  0  0  0
 19 40  1  0  0  0  0
 19 41  1  0  0  0  0
M  END
