 xtb: 6.7.1 (edcfbbe)
          04092505213D

 41 40  0     0  0            999 V2000
    2.1160   -1.2461   -2.7545 C   0  0  0  0  0  0  0  0  0  0  0  0
    2.7118    0.0259   -2.1859 C   0  0  0  0  0  0  0  0  0  0  0  0
    3.2417   -0.2066   -0.8676 O   0  0  0  0  0  0  0  0  0  0  0  0
    2.5072    0.1343    0.4948 P   0  0  0  0  0  0  0  0  0  0  0  0
    1.9753    1.9991    0.7888 S   0  0  0  0  0  0  0  0  0  0  0  0
    3.6114   -0.2670    1.5485 O   0  0  0  0  0  0  0  0  0  0  0  0
    4.5723   -1.3429    1.4042 C   0  0  0  0  0  0  0  0  0  0  0  0
    3.9182   -2.7034    1.2888 C   0  0  0  0  0  0  0  0  0  0  0  0
    0.9328   -1.2840    0.7018 S   0  0  0  0  0  0  0  0  0  0  0  0
   -0.2073   -0.2988    1.7263 C   0  0  0  0  0  0  0  0  0  0  0  0
   -1.9296   -0.6795    1.3638 S   0  0  0  0  0  0  0  0  0  0  0  0
   -2.1979    0.5298   -0.3806 P   0  0  0  0  0  0  0  0  0  0  0  0
   -0.6583    0.8711   -1.5347 S   0  0  0  0  0  0  0  0  0  0  0  0
   -2.7430    1.9153    0.1413 O   0  0  0  0  0  0  0  0  0  0  0  0
   -3.9225    2.0556    0.9698 C   0  0  0  0  0  0  0  0  0  0  0  0
   -5.1302    2.4105    0.1264 C   0  0  0  0  0  0  0  0  0  0  0  0
   -3.4847   -0.1212   -1.0436 O   0  0  0  0  0  0  0  0  0  0  0  0
   -3.6374   -1.5241   -1.3428 C   0  0  0  0  0  0  0  0  0  0  0  0
   -2.4247   -2.1198   -2.0255 C   0  0  0  0  0  0  0  0  0  0  0  0
    2.8519   -2.0448   -2.7400 H   0  0  0  0  0  0  0  0  0  0  0  0
    1.2468   -1.5461   -2.1746 H   0  0  0  0  0  0  0  0  0  0  0  0
    1.8029   -1.0587   -3.7761 H   0  0  0  0  0  0  0  0  0  0  0  0
    1.9670    0.8258   -2.1461 H   0  0  0  0  0  0  0  0  0  0  0  0
    3.5708    0.3596   -2.7712 H   0  0  0  0  0  0  0  0  0  0  0  0
    5.1900   -1.1300    0.5301 H   0  0  0  0  0  0  0  0  0  0  0  0
    5.1716   -1.2597    2.3123 H   0  0  0  0  0  0  0  0  0  0  0  0
    3.3284   -2.7645    0.3761 H   0  0  0  0  0  0  0  0  0  0  0  0
    4.6922   -3.4641    1.2615 H   0  0  0  0  0  0  0  0  0  0  0  0
    3.2654   -2.8870    2.1382 H   0  0  0  0  0  0  0  0  0  0  0  0
   -0.0049    0.7601    1.5402 H   0  0  0  0  0  0  0  0  0  0  0  0
   -0.0533   -0.5526    2.7721 H   0  0  0  0  0  0  0  0  0  0  0  0
   -4.0818    1.1244    1.5213 H   0  0  0  0  0  0  0  0  0  0  0  0
   -3.6735    2.8590    1.6657 H   0  0  0  0  0  0  0  0  0  0  0  0
   -5.3512    1.6083   -0.5724 H   0  0  0  0  0  0  0  0  0  0  0  0
   -5.9844    2.5668    0.7777 H   0  0  0  0  0  0  0  0  0  0  0  0
   -4.9360    3.3197   -0.4362 H   0  0  0  0  0  0  0  0  0  0  0  0
   -3.8472   -2.0446   -0.4047 H   0  0  0  0  0  0  0  0  0  0  0  0
   -4.5150   -1.5550   -1.9909 H   0  0  0  0  0  0  0  0  0  0  0  0
   -2.1734   -1.5510   -2.9178 H   0  0  0  0  0  0  0  0  0  0  0  0
   -1.5674   -2.1029   -1.3527 H   0  0  0  0  0  0  0  0  0  0  0  0
   -2.6348   -3.1484   -2.3002 H   0  0  0  0  0  0  0  0  0  0  0  0
  1  2  1  0  0  0  0
  2  3  1  0  0  0  0
  3  4  2  0  0  0  0
  4  5  2  0  0  0  0
  4  6  2  0  0  0  0
  6  7  1  0  0  0  0
  7  8  1  0  0  0  0
  4  9  1  0  0  0  0
  9 10  1  0  0  0  0
 10 11  1  0  0  0  0
 11 12  1  0  0  0  0
 12 13  2  0  0  0  0
 12 14  2  0  0  0  0
 14 15  1  0  0  0  0
 15 16  1  0  0  0  0
 12 17  2  0  0  0  0
 17 18  1  0  0  0  0
 18 19  1  0  0  0  0
  1 20  1  0  0  0  0
  1 21  1  0  0  0  0
  1 22  1  0  0  0  0
  2 23  1  0  0  0  0
  2 24  1  0  0  0  0
  7 25  1  0  0  0  0
  7 26  1  0  0  0  0
  8 27  1  0  0  0  0
  8 28  1  0  0  0  0
  8 29  1  0  0  0  0
 10 30  1  0  0  0  0
 10 31  1  0  0  0  0
 15 32  1  0  0  0  0
 15 33  1  0  0  0  0
 16 34  1  0  0  0  0
 16 35  1  0  0  0  0
 16 36  1  0  0  0  0
 18 37  1  0  0  0  0
 18 38  1  0  0  0  0
 19 39  1  0  0  0  0
 19 40  1  0  0  0  0
 19 41  1  0  0  0  0
M  END
