 xtb: 6.7.1 (edcfbbe)
          04092505203D

 41 40  0     0  0            999 V2000
    0.6381   -1.9224    2.7394 C   0  0  0  0  0  0  0  0  0  0  0  0
    1.5848   -0.7394    2.6878 C   0  0  0  0  0  0  0  0  0  0  0  0
    1.3142    0.0692    1.5214 O   0  0  0  0  0  0  0  0  0  0  0  0
    2.2038   -0.0004    0.2130 P   0  0  0  0  0  0  0  0  0  0  0  0
    2.9316   -1.7545   -0.2874 S   0  0  0  0  0  0  0  0  0  0  0  0
    3.3174    1.0837    0.5622 O   0  0  0  0  0  0  0  0  0  0  0  0
    4.5502    1.1878   -0.1713 C   0  0  0  0  0  0  0  0  0  0  0  0
    4.3320    1.6948   -1.5822 C   0  0  0  0  0  0  0  0  0  0  0  0
    0.9245    0.9672   -1.1507 S   0  0  0  0  0  0  0  0  0  0  0  0
    0.1315   -0.5238   -1.8130 C   0  0  0  0  0  0  0  0  0  0  0  0
   -0.7943   -1.4616   -0.5669 S   0  0  0  0  0  0  0  0  0  0  0  0
   -2.2112    0.0289   -0.1164 P   0  0  0  0  0  0  0  0  0  0  0  0
   -2.8088    1.2045   -1.5717 S   0  0  0  0  0  0  0  0  0  0  0  0
   -1.5061    0.7138    1.1253 O   0  0  0  0  0  0  0  0  0  0  0  0
   -1.9018    2.0107    1.6245 C   0  0  0  0  0  0  0  0  0  0  0  0
   -0.9324    3.0755    1.1506 C   0  0  0  0  0  0  0  0  0  0  0  0
   -3.3950   -0.7466    0.6147 O   0  0  0  0  0  0  0  0  0  0  0  0
   -4.5216   -1.2860   -0.0984 C   0  0  0  0  0  0  0  0  0  0  0  0
   -4.1326   -2.4605   -0.9729 C   0  0  0  0  0  0  0  0  0  0  0  0
    0.8305   -2.5950    1.9058 H   0  0  0  0  0  0  0  0  0  0  0  0
    0.7829   -2.4587    3.6716 H   0  0  0  0  0  0  0  0  0  0  0  0
   -0.3910   -1.5771    2.6748 H   0  0  0  0  0  0  0  0  0  0  0  0
    2.6265   -1.0724    2.6642 H   0  0  0  0  0  0  0  0  0  0  0  0
    1.4334   -0.0685    3.5349 H   0  0  0  0  0  0  0  0  0  0  0  0
    5.1488    1.8823    0.4197 H   0  0  0  0  0  0  0  0  0  0  0  0
    5.0269    0.2023   -0.1859 H   0  0  0  0  0  0  0  0  0  0  0  0
    3.7849    0.9539   -2.1637 H   0  0  0  0  0  0  0  0  0  0  0  0
    3.7599    2.6191   -1.5677 H   0  0  0  0  0  0  0  0  0  0  0  0
    5.2936    1.8718   -2.0531 H   0  0  0  0  0  0  0  0  0  0  0  0
    0.8885   -1.2033   -2.2026 H   0  0  0  0  0  0  0  0  0  0  0  0
   -0.5437   -0.1844   -2.5977 H   0  0  0  0  0  0  0  0  0  0  0  0
   -2.9199    2.2320    1.2913 H   0  0  0  0  0  0  0  0  0  0  0  0
   -1.8853    1.9095    2.7109 H   0  0  0  0  0  0  0  0  0  0  0  0
   -0.9912    3.1837    0.0694 H   0  0  0  0  0  0  0  0  0  0  0  0
   -1.1815    4.0226    1.6182 H   0  0  0  0  0  0  0  0  0  0  0  0
    0.0845    2.7958    1.4155 H   0  0  0  0  0  0  0  0  0  0  0  0
   -5.2139   -1.5817    0.6909 H   0  0  0  0  0  0  0  0  0  0  0  0
   -4.9626   -0.4862   -0.7021 H   0  0  0  0  0  0  0  0  0  0  0  0
   -3.5943   -3.2038   -0.3902 H   0  0  0  0  0  0  0  0  0  0  0  0
   -5.0278   -2.9083   -1.3921 H   0  0  0  0  0  0  0  0  0  0  0  0
   -3.4921   -2.1230   -1.7867 H   0  0  0  0  0  0  0  0  0  0  0  0
  1  2  1  0  0  0  0
  2  3  1  0  0  0  0
  3  4  2  0  0  0  0
  4  5  2  0  0  0  0
  4  6  2  0  0  0  0
  6  7  1  0  0  0  0
  7  8  1  0  0  0  0
  4  9  1  0  0  0  0
  9 10  1  0  0  0  0
 10 11  1  0  0  0  0
 11 12  1  0  0  0  0
 12 13  2  0  0  0  0
 12 14  2  0  0  0  0
 14 15  1  0  0  0  0
 15 16  1  0  0  0  0
 12 17  2  0  0  0  0
 17 18  1  0  0  0  0
 18 19  1  0  0  0  0
  1 20  1  0  0  0  0
  1 21  1  0  0  0  0
  1 22  1  0  0  0  0
  2 23  1  0  0  0  0
  2 24  1  0  0  0  0
  7 25  1  0  0  0  0
  7 26  1  0  0  0  0
  8 27  1  0  0  0  0
  8 28  1  0  0  0  0
  8 29  1  0  0  0  0
 10 30  1  0  0  0  0
 10 31  1  0  0  0  0
 15 32  1  0  0  0  0
 15 33  1  0  0  0  0
 16 34  1  0  0  0  0
 16 35  1  0  0  0  0
 16 36  1  0  0  0  0
 18 37  1  0  0  0  0
 18 38  1  0  0  0  0
 19 39  1  0  0  0  0
 19 40  1  0  0  0  0
 19 41  1  0  0  0  0
M  END
