 xtb: 6.7.1 (edcfbbe)
          04092505213D

 41 40  0     0  0            999 V2000
    5.2140   -1.2651   -0.3993 C   0  0  0  0  0  0  0  0  0  0  0  0
    4.6100   -0.4135   -1.4955 C   0  0  0  0  0  0  0  0  0  0  0  0
    3.1880   -0.2432   -1.3154 O   0  0  0  0  0  0  0  0  0  0  0  0
    2.6013    0.6223   -0.1233 P   0  0  0  0  0  0  0  0  0  0  0  0
    3.6603    2.1605    0.4646 S   0  0  0  0  0  0  0  0  0  0  0  0
    2.3504   -0.4967    0.9803 O   0  0  0  0  0  0  0  0  0  0  0  0
    1.9311   -0.1464    2.3155 C   0  0  0  0  0  0  0  0  0  0  0  0
    1.5685   -1.4293    3.0339 C   0  0  0  0  0  0  0  0  0  0  0  0
    0.6871    1.0624   -0.9062 S   0  0  0  0  0  0  0  0  0  0  0  0
    0.0824   -0.6548   -1.0624 C   0  0  0  0  0  0  0  0  0  0  0  0
   -0.9958   -1.1298    0.2967 S   0  0  0  0  0  0  0  0  0  0  0  0
   -2.7305   -0.1133   -0.4203 P   0  0  0  0  0  0  0  0  0  0  0  0
   -2.9705   -0.2471   -2.3618 S   0  0  0  0  0  0  0  0  0  0  0  0
   -2.6594    1.4145   -0.0366 O   0  0  0  0  0  0  0  0  0  0  0  0
   -2.8462    1.9924    1.2772 C   0  0  0  0  0  0  0  0  0  0  0  0
   -1.6451    1.7750    2.1746 C   0  0  0  0  0  0  0  0  0  0  0  0
   -3.8831   -0.6355    0.5367 O   0  0  0  0  0  0  0  0  0  0  0  0
   -4.1240   -2.0179    0.8657 C   0  0  0  0  0  0  0  0  0  0  0  0
   -4.3322   -2.8825   -0.3595 C   0  0  0  0  0  0  0  0  0  0  0  0
    5.1341   -0.7456    0.5546 H   0  0  0  0  0  0  0  0  0  0  0  0
    4.6928   -2.2160   -0.3290 H   0  0  0  0  0  0  0  0  0  0  0  0
    6.2624   -1.4418   -0.6182 H   0  0  0  0  0  0  0  0  0  0  0  0
    4.6936   -0.8866   -2.4749 H   0  0  0  0  0  0  0  0  0  0  0  0
    5.0769    0.5762   -1.5181 H   0  0  0  0  0  0  0  0  0  0  0  0
    2.7561    0.3807    2.8034 H   0  0  0  0  0  0  0  0  0  0  0  0
    1.0740    0.5296    2.2528 H   0  0  0  0  0  0  0  0  0  0  0  0
    1.2622   -1.1937    4.0475 H   0  0  0  0  0  0  0  0  0  0  0  0
    0.7520   -1.9237    2.5136 H   0  0  0  0  0  0  0  0  0  0  0  0
    2.4255   -2.0951    3.0627 H   0  0  0  0  0  0  0  0  0  0  0  0
    0.9290   -1.3346   -1.0740 H   0  0  0  0  0  0  0  0  0  0  0  0
   -0.4867   -0.7060   -1.9927 H   0  0  0  0  0  0  0  0  0  0  0  0
   -2.9950    3.0520    1.0632 H   0  0  0  0  0  0  0  0  0  0  0  0
   -3.7512    1.5703    1.7171 H   0  0  0  0  0  0  0  0  0  0  0  0
   -1.7796    2.3435    3.0896 H   0  0  0  0  0  0  0  0  0  0  0  0
   -1.5392    0.7215    2.4244 H   0  0  0  0  0  0  0  0  0  0  0  0
   -0.7424    2.1207    1.6734 H   0  0  0  0  0  0  0  0  0  0  0  0
   -3.2778   -2.3801    1.4554 H   0  0  0  0  0  0  0  0  0  0  0  0
   -5.0220   -1.9801    1.4848 H   0  0  0  0  0  0  0  0  0  0  0  0
   -5.1324   -2.4811   -0.9767 H   0  0  0  0  0  0  0  0  0  0  0  0
   -3.4226   -2.9135   -0.9574 H   0  0  0  0  0  0  0  0  0  0  0  0
   -4.5878   -3.8908   -0.0502 H   0  0  0  0  0  0  0  0  0  0  0  0
  1  2  1  0  0  0  0
  2  3  1  0  0  0  0
  3  4  2  0  0  0  0
  4  5  2  0  0  0  0
  4  6  2  0  0  0  0
  6  7  1  0  0  0  0
  7  8  1  0  0  0  0
  4  9  1  0  0  0  0
  9 10  1  0  0  0  0
 10 11  1  0  0  0  0
 11 12  1  0  0  0  0
 12 13  2  0  0  0  0
 12 14  2  0  0  0  0
 14 15  1  0  0  0  0
 15 16  1  0  0  0  0
 12 17  2  0  0  0  0
 17 18  1  0  0  0  0
 18 19  1  0  0  0  0
  1 20  1  0  0  0  0
  1 21  1  0  0  0  0
  1 22  1  0  0  0  0
  2 23  1  0  0  0  0
  2 24  1  0  0  0  0
  7 25  1  0  0  0  0
  7 26  1  0  0  0  0
  8 27  1  0  0  0  0
  8 28  1  0  0  0  0
  8 29  1  0  0  0  0
 10 30  1  0  0  0  0
 10 31  1  0  0  0  0
 15 32  1  0  0  0  0
 15 33  1  0  0  0  0
 16 34  1  0  0  0  0
 16 35  1  0  0  0  0
 16 36  1  0  0  0  0
 18 37  1  0  0  0  0
 18 38  1  0  0  0  0
 19 39  1  0  0  0  0
 19 40  1  0  0  0  0
 19 41  1  0  0  0  0
M  END
