 xtb: 6.7.1 (edcfbbe)
          04092505203D

 41 40  0     0  0            999 V2000
    5.1224   -0.7493   -1.6723 C   0  0  0  0  0  0  0  0  0  0  0  0
    4.4724   -0.8986   -0.3111 C   0  0  0  0  0  0  0  0  0  0  0  0
    3.6261    0.2211    0.0110 O   0  0  0  0  0  0  0  0  0  0  0  0
    2.1342    0.4178   -0.5163 P   0  0  0  0  0  0  0  0  0  0  0  0
    1.8835    0.6788   -2.4369 S   0  0  0  0  0  0  0  0  0  0  0  0
    1.7085    1.6723    0.3318 O   0  0  0  0  0  0  0  0  0  0  0  0
    1.8819    1.7331    1.7709 C   0  0  0  0  0  0  0  0  0  0  0  0
    0.9171    2.7659    2.3135 C   0  0  0  0  0  0  0  0  0  0  0  0
    1.1826   -1.2974    0.3113 S   0  0  0  0  0  0  0  0  0  0  0  0
   -0.0133   -1.7006   -1.0041 C   0  0  0  0  0  0  0  0  0  0  0  0
   -1.6777   -1.9376   -0.3590 S   0  0  0  0  0  0  0  0  0  0  0  0
   -2.0130    0.0650    0.2846 P   0  0  0  0  0  0  0  0  0  0  0  0
   -1.3063    1.4730   -0.8869 S   0  0  0  0  0  0  0  0  0  0  0  0
   -1.3819    0.2327    1.7184 O   0  0  0  0  0  0  0  0  0  0  0  0
   -1.3548   -0.7448    2.7918 C   0  0  0  0  0  0  0  0  0  0  0  0
   -2.7111   -1.3329    3.1130 C   0  0  0  0  0  0  0  0  0  0  0  0
   -3.5689    0.1055    0.5895 O   0  0  0  0  0  0  0  0  0  0  0  0
   -4.6058   -0.3756   -0.2843 C   0  0  0  0  0  0  0  0  0  0  0  0
   -4.5441    0.2388   -1.6669 C   0  0  0  0  0  0  0  0  0  0  0  0
    4.3680   -0.7434   -2.4560 H   0  0  0  0  0  0  0  0  0  0  0  0
    5.6774    0.1836   -1.7222 H   0  0  0  0  0  0  0  0  0  0  0  0
    5.8006   -1.5805   -1.8365 H   0  0  0  0  0  0  0  0  0  0  0  0
    5.2187   -0.8967    0.4858 H   0  0  0  0  0  0  0  0  0  0  0  0
    3.8807   -1.8168   -0.2559 H   0  0  0  0  0  0  0  0  0  0  0  0
    1.6830    0.7407    2.1881 H   0  0  0  0  0  0  0  0  0  0  0  0
    2.9206    2.0071    1.9652 H   0  0  0  0  0  0  0  0  0  0  0  0
    1.0419    2.8426    3.3887 H   0  0  0  0  0  0  0  0  0  0  0  0
    1.1103    3.7314    1.8546 H   0  0  0  0  0  0  0  0  0  0  0  0
   -0.1059    2.4755    2.0854 H   0  0  0  0  0  0  0  0  0  0  0  0
    0.2772   -2.6449   -1.4575 H   0  0  0  0  0  0  0  0  0  0  0  0
   -0.0003   -0.8882   -1.7369 H   0  0  0  0  0  0  0  0  0  0  0  0
   -0.6443   -1.5281    2.5109 H   0  0  0  0  0  0  0  0  0  0  0  0
   -0.9586   -0.1728    3.6324 H   0  0  0  0  0  0  0  0  0  0  0  0
   -3.4334   -0.5408    3.2915 H   0  0  0  0  0  0  0  0  0  0  0  0
   -3.0621   -1.9566    2.2937 H   0  0  0  0  0  0  0  0  0  0  0  0
   -2.6215   -1.9446    4.0056 H   0  0  0  0  0  0  0  0  0  0  0  0
   -4.5243   -1.4646   -0.3428 H   0  0  0  0  0  0  0  0  0  0  0  0
   -5.5260   -0.0985    0.2329 H   0  0  0  0  0  0  0  0  0  0  0  0
   -4.5624    1.3243   -1.6017 H   0  0  0  0  0  0  0  0  0  0  0  0
   -3.6243   -0.0558   -2.1708 H   0  0  0  0  0  0  0  0  0  0  0  0
   -5.3923   -0.1012   -2.2524 H   0  0  0  0  0  0  0  0  0  0  0  0
  1  2  1  0  0  0  0
  2  3  1  0  0  0  0
  3  4  2  0  0  0  0
  4  5  2  0  0  0  0
  4  6  2  0  0  0  0
  6  7  1  0  0  0  0
  7  8  1  0  0  0  0
  4  9  1  0  0  0  0
  9 10  1  0  0  0  0
 10 11  1  0  0  0  0
 11 12  1  0  0  0  0
 12 13  2  0  0  0  0
 12 14  2  0  0  0  0
 14 15  1  0  0  0  0
 15 16  1  0  0  0  0
 12 17  2  0  0  0  0
 17 18  1  0  0  0  0
 18 19  1  0  0  0  0
  1 20  1  0  0  0  0
  1 21  1  0  0  0  0
  1 22  1  0  0  0  0
  2 23  1  0  0  0  0
  2 24  1  0  0  0  0
  7 25  1  0  0  0  0
  7 26  1  0  0  0  0
  8 27  1  0  0  0  0
  8 28  1  0  0  0  0
  8 29  1  0  0  0  0
 10 30  1  0  0  0  0
 10 31  1  0  0  0  0
 15 32  1  0  0  0  0
 15 33  1  0  0  0  0
 16 34  1  0  0  0  0
 16 35  1  0  0  0  0
 16 36  1  0  0  0  0
 18 37  1  0  0  0  0
 18 38  1  0  0  0  0
 19 39  1  0  0  0  0
 19 40  1  0  0  0  0
 19 41  1  0  0  0  0
M  END
