 xtb: 6.7.1 (edcfbbe)
          04092505213D

 41 40  0     0  0            999 V2000
    3.6529    2.3611   -1.4308 C   0  0  0  0  0  0  0  0  0  0  0  0
    4.3079    1.7612   -0.2033 C   0  0  0  0  0  0  0  0  0  0  0  0
    3.8952    0.4011    0.0091 O   0  0  0  0  0  0  0  0  0  0  0  0
    2.4013    0.0225    0.4092 P   0  0  0  0  0  0  0  0  0  0  0  0
    1.6269    1.2628    1.7202 S   0  0  0  0  0  0  0  0  0  0  0  0
    2.5710   -1.4792    0.8757 O   0  0  0  0  0  0  0  0  0  0  0  0
    2.6026   -1.8896    2.2616 C   0  0  0  0  0  0  0  0  0  0  0  0
    1.5106   -2.9113    2.5076 C   0  0  0  0  0  0  0  0  0  0  0  0
    1.4658   -0.2874   -1.4656 S   0  0  0  0  0  0  0  0  0  0  0  0
    0.1694   -1.4625   -0.9641 C   0  0  0  0  0  0  0  0  0  0  0  0
   -0.8783   -0.8957    0.3938 S   0  0  0  0  0  0  0  0  0  0  0  0
   -2.5811   -0.1596   -0.6723 P   0  0  0  0  0  0  0  0  0  0  0  0
   -2.5405   -0.4561   -2.6060 S   0  0  0  0  0  0  0  0  0  0  0  0
   -2.8111    1.3442   -0.1993 O   0  0  0  0  0  0  0  0  0  0  0  0
   -2.3256    2.4861   -0.9223 C   0  0  0  0  0  0  0  0  0  0  0  0
   -0.8147    2.5775   -0.9112 C   0  0  0  0  0  0  0  0  0  0  0  0
   -3.8020   -0.8976    0.0045 O   0  0  0  0  0  0  0  0  0  0  0  0
   -4.4109   -0.5349    1.2669 C   0  0  0  0  0  0  0  0  0  0  0  0
   -3.4488   -0.6527    2.4296 C   0  0  0  0  0  0  0  0  0  0  0  0
    4.0490    3.3565   -1.6038 H   0  0  0  0  0  0  0  0  0  0  0  0
    3.8399    1.7390   -2.3025 H   0  0  0  0  0  0  0  0  0  0  0  0
    2.5760    2.4293   -1.2764 H   0  0  0  0  0  0  0  0  0  0  0  0
    4.0559    2.3420    0.6901 H   0  0  0  0  0  0  0  0  0  0  0  0
    5.3911    1.6952   -0.3116 H   0  0  0  0  0  0  0  0  0  0  0  0
    3.5949   -2.3113    2.4310 H   0  0  0  0  0  0  0  0  0  0  0  0
    2.4644   -1.0086    2.8971 H   0  0  0  0  0  0  0  0  0  0  0  0
    1.5560   -3.2368    3.5417 H   0  0  0  0  0  0  0  0  0  0  0  0
    0.5359   -2.4670    2.3152 H   0  0  0  0  0  0  0  0  0  0  0  0
    1.6449   -3.7700    1.8555 H   0  0  0  0  0  0  0  0  0  0  0  0
    0.6412   -2.3869   -0.6428 H   0  0  0  0  0  0  0  0  0  0  0  0
   -0.4489   -1.6154   -1.8518 H   0  0  0  0  0  0  0  0  0  0  0  0
   -2.6970    2.4292   -1.9503 H   0  0  0  0  0  0  0  0  0  0  0  0
   -2.7818    3.3322   -0.4060 H   0  0  0  0  0  0  0  0  0  0  0  0
   -0.4335    2.5157    0.1066 H   0  0  0  0  0  0  0  0  0  0  0  0
   -0.3896    1.7662   -1.5020 H   0  0  0  0  0  0  0  0  0  0  0  0
   -0.5075    3.5221   -1.3487 H   0  0  0  0  0  0  0  0  0  0  0  0
   -4.7968    0.4827    1.1815 H   0  0  0  0  0  0  0  0  0  0  0  0
   -5.2376   -1.2414    1.3551 H   0  0  0  0  0  0  0  0  0  0  0  0
   -2.6289    0.0556    2.3163 H   0  0  0  0  0  0  0  0  0  0  0  0
   -3.9771   -0.4324    3.3520 H   0  0  0  0  0  0  0  0  0  0  0  0
   -3.0377   -1.6575    2.4832 H   0  0  0  0  0  0  0  0  0  0  0  0
  1  2  1  0  0  0  0
  2  3  1  0  0  0  0
  3  4  2  0  0  0  0
  4  5  2  0  0  0  0
  4  6  2  0  0  0  0
  6  7  1  0  0  0  0
  7  8  1  0  0  0  0
  4  9  1  0  0  0  0
  9 10  1  0  0  0  0
 10 11  1  0  0  0  0
 11 12  1  0  0  0  0
 12 13  2  0  0  0  0
 12 14  2  0  0  0  0
 14 15  1  0  0  0  0
 15 16  1  0  0  0  0
 12 17  2  0  0  0  0
 17 18  1  0  0  0  0
 18 19  1  0  0  0  0
  1 20  1  0  0  0  0
  1 21  1  0  0  0  0
  1 22  1  0  0  0  0
  2 23  1  0  0  0  0
  2 24  1  0  0  0  0
  7 25  1  0  0  0  0
  7 26  1  0  0  0  0
  8 27  1  0  0  0  0
  8 28  1  0  0  0  0
  8 29  1  0  0  0  0
 10 30  1  0  0  0  0
 10 31  1  0  0  0  0
 15 32  1  0  0  0  0
 15 33  1  0  0  0  0
 16 34  1  0  0  0  0
 16 35  1  0  0  0  0
 16 36  1  0  0  0  0
 18 37  1  0  0  0  0
 18 38  1  0  0  0  0
 19 39  1  0  0  0  0
 19 40  1  0  0  0  0
 19 41  1  0  0  0  0
M  END
