 xtb: 6.7.1 (edcfbbe)
          04092505213D

 41 40  0     0  0            999 V2000
    3.9574    1.4294   -1.1686 C   0  0  0  0  0  0  0  0  0  0  0  0
    4.0488    1.1518    0.3180 C   0  0  0  0  0  0  0  0  0  0  0  0
    3.2413    0.0324    0.7049 O   0  0  0  0  0  0  0  0  0  0  0  0
    1.6449    0.0815    0.6435 P   0  0  0  0  0  0  0  0  0  0  0  0
    0.9622    1.8096    1.2602 S   0  0  0  0  0  0  0  0  0  0  0  0
    1.2491   -1.1423    1.5632 O   0  0  0  0  0  0  0  0  0  0  0  0
    2.0732   -2.3308    1.7077 C   0  0  0  0  0  0  0  0  0  0  0  0
    2.9316   -2.2306    2.9518 C   0  0  0  0  0  0  0  0  0  0  0  0
    1.3261   -0.6221   -1.3700 S   0  0  0  0  0  0  0  0  0  0  0  0
    0.1220   -1.9619   -1.1812 C   0  0  0  0  0  0  0  0  0  0  0  0
   -1.5437   -1.6102   -1.8459 S   0  0  0  0  0  0  0  0  0  0  0  0
   -2.0410    0.0995   -0.7202 P   0  0  0  0  0  0  0  0  0  0  0  0
   -3.9465    0.5128   -0.5889 S   0  0  0  0  0  0  0  0  0  0  0  0
   -1.1280    1.1998   -1.4131 O   0  0  0  0  0  0  0  0  0  0  0  0
   -1.6113    2.5092   -1.7807 C   0  0  0  0  0  0  0  0  0  0  0  0
   -1.7194    3.4308   -0.5846 C   0  0  0  0  0  0  0  0  0  0  0  0
   -1.2747   -0.1290    0.6660 O   0  0  0  0  0  0  0  0  0  0  0  0
   -1.9742   -0.5402    1.8542 C   0  0  0  0  0  0  0  0  0  0  0  0
   -2.2669   -2.0270    1.8504 C   0  0  0  0  0  0  0  0  0  0  0  0
    4.6310    2.2398   -1.4277 H   0  0  0  0  0  0  0  0  0  0  0  0
    4.2186    0.5424   -1.7399 H   0  0  0  0  0  0  0  0  0  0  0  0
    2.9387    1.7220   -1.4253 H   0  0  0  0  0  0  0  0  0  0  0  0
    3.7266    2.0266    0.8927 H   0  0  0  0  0  0  0  0  0  0  0  0
    5.0592    0.8648    0.6126 H   0  0  0  0  0  0  0  0  0  0  0  0
    1.3624   -3.1560    1.7913 H   0  0  0  0  0  0  0  0  0  0  0  0
    2.6878   -2.4554    0.8142 H   0  0  0  0  0  0  0  0  0  0  0  0
    2.3077   -2.0581    3.8245 H   0  0  0  0  0  0  0  0  0  0  0  0
    3.4789   -3.1594    3.0799 H   0  0  0  0  0  0  0  0  0  0  0  0
    3.6368   -1.4092    2.8583 H   0  0  0  0  0  0  0  0  0  0  0  0
    0.0316   -2.2237   -0.1318 H   0  0  0  0  0  0  0  0  0  0  0  0
    0.4809   -2.8000   -1.7735 H   0  0  0  0  0  0  0  0  0  0  0  0
   -0.8729    2.8652   -2.5002 H   0  0  0  0  0  0  0  0  0  0  0  0
   -2.5848    2.3959   -2.2679 H   0  0  0  0  0  0  0  0  0  0  0  0
   -2.0011    4.4229   -0.9221 H   0  0  0  0  0  0  0  0  0  0  0  0
   -2.4784    3.0604    0.1031 H   0  0  0  0  0  0  0  0  0  0  0  0
   -0.7705    3.4823   -0.0563 H   0  0  0  0  0  0  0  0  0  0  0  0
   -1.3044   -0.2547    2.6675 H   0  0  0  0  0  0  0  0  0  0  0  0
   -2.9033    0.0343    1.9215 H   0  0  0  0  0  0  0  0  0  0  0  0
   -1.3447   -2.6010    1.8129 H   0  0  0  0  0  0  0  0  0  0  0  0
   -2.8060   -2.2831    2.7570 H   0  0  0  0  0  0  0  0  0  0  0  0
   -2.8847   -2.2802    0.9888 H   0  0  0  0  0  0  0  0  0  0  0  0
  1  2  1  0  0  0  0
  2  3  1  0  0  0  0
  3  4  1  0  0  0  0
  4  5  2  0  0  0  0
  4  6  2  0  0  0  0
  6  7  1  0  0  0  0
  7  8  1  0  0  0  0
  4  9  1  0  0  0  0
  9 10  1  0  0  0  0
 10 11  1  0  0  0  0
 11 12  1  0  0  0  0
 12 13  2  0  0  0  0
 12 14  2  0  0  0  0
 14 15  1  0  0  0  0
 15 16  1  0  0  0  0
 12 17  1  0  0  0  0
 17 18  1  0  0  0  0
 18 19  1  0  0  0  0
  1 20  1  0  0  0  0
  1 21  1  0  0  0  0
  1 22  1  0  0  0  0
  2 23  1  0  0  0  0
  2 24  1  0  0  0  0
  7 25  1  0  0  0  0
  7 26  1  0  0  0  0
  8 27  1  0  0  0  0
  8 28  1  0  0  0  0
  8 29  1  0  0  0  0
 10 30  1  0  0  0  0
 10 31  1  0  0  0  0
 15 32  1  0  0  0  0
 15 33  1  0  0  0  0
 16 34  1  0  0  0  0
 16 35  1  0  0  0  0
 16 36  1  0  0  0  0
 18 37  1  0  0  0  0
 18 38  1  0  0  0  0
 19 39  1  0  0  0  0
 19 40  1  0  0  0  0
 19 41  1  0  0  0  0
M  END
