 xtb: 6.7.1 (edcfbbe)
          04092505213D

 41 40  0     0  0            999 V2000
    3.5958   -1.3039   -2.9414 C   0  0  0  0  0  0  0  0  0  0  0  0
    4.2012   -1.0202   -1.5829 C   0  0  0  0  0  0  0  0  0  0  0  0
    3.4904   -0.0026   -0.8508 O   0  0  0  0  0  0  0  0  0  0  0  0
    1.9412   -0.0265   -0.5164 P   0  0  0  0  0  0  0  0  0  0  0  0
    0.7271    0.5081   -1.9557 S   0  0  0  0  0  0  0  0  0  0  0  0
    1.8272    0.9959    0.6761 O   0  0  0  0  0  0  0  0  0  0  0  0
    2.2821    0.8226    2.0402 C   0  0  0  0  0  0  0  0  0  0  0  0
    3.7368    0.4204    2.1470 C   0  0  0  0  0  0  0  0  0  0  0  0
    1.6002   -1.9754    0.2548 S   0  0  0  0  0  0  0  0  0  0  0  0
   -0.2009   -1.9151    0.1791 C   0  0  0  0  0  0  0  0  0  0  0  0
   -0.9366   -0.9631    1.5583 S   0  0  0  0  0  0  0  0  0  0  0  0
   -1.8886    0.6885    0.6548 P   0  0  0  0  0  0  0  0  0  0  0  0
   -1.0507    2.4501    0.4984 S   0  0  0  0  0  0  0  0  0  0  0  0
   -3.1514    0.8945    1.5982 O   0  0  0  0  0  0  0  0  0  0  0  0
   -3.9885   -0.1244    2.1945 C   0  0  0  0  0  0  0  0  0  0  0  0
   -4.6804   -0.9979    1.1685 C   0  0  0  0  0  0  0  0  0  0  0  0
   -2.3785    0.0128   -0.7050 O   0  0  0  0  0  0  0  0  0  0  0  0
   -2.7916    0.7921   -1.8444 C   0  0  0  0  0  0  0  0  0  0  0  0
   -2.7438   -0.1042   -3.0637 C   0  0  0  0  0  0  0  0  0  0  0  0
    3.5151   -0.3867   -3.5202 H   0  0  0  0  0  0  0  0  0  0  0  0
    4.2237   -2.0111   -3.4735 H   0  0  0  0  0  0  0  0  0  0  0  0
    2.5987   -1.7265   -2.8295 H   0  0  0  0  0  0  0  0  0  0  0  0
    5.2090   -0.6113   -1.6729 H   0  0  0  0  0  0  0  0  0  0  0  0
    4.2201   -1.9269   -0.9721 H   0  0  0  0  0  0  0  0  0  0  0  0
    2.0975    1.8036    2.4822 H   0  0  0  0  0  0  0  0  0  0  0  0
    1.6345    0.0819    2.5201 H   0  0  0  0  0  0  0  0  0  0  0  0
    3.8832   -0.5896    1.7698 H   0  0  0  0  0  0  0  0  0  0  0  0
    4.3594    1.1074    1.5796 H   0  0  0  0  0  0  0  0  0  0  0  0
    4.0287    0.4513    3.1923 H   0  0  0  0  0  0  0  0  0  0  0  0
   -0.5505   -2.9387    0.2800 H   0  0  0  0  0  0  0  0  0  0  0  0
   -0.5097   -1.4677   -0.7667 H   0  0  0  0  0  0  0  0  0  0  0  0
   -3.3725   -0.7242    2.8685 H   0  0  0  0  0  0  0  0  0  0  0  0
   -4.7071    0.4576    2.7744 H   0  0  0  0  0  0  0  0  0  0  0  0
   -5.3634   -1.6680    1.6814 H   0  0  0  0  0  0  0  0  0  0  0  0
   -5.2420   -0.3848    0.4678 H   0  0  0  0  0  0  0  0  0  0  0  0
   -3.9525   -1.5882    0.6169 H   0  0  0  0  0  0  0  0  0  0  0  0
   -3.8019    1.1626   -1.6515 H   0  0  0  0  0  0  0  0  0  0  0  0
   -2.1141    1.6460   -1.9499 H   0  0  0  0  0  0  0  0  0  0  0  0
   -3.1239    0.4446   -3.9186 H   0  0  0  0  0  0  0  0  0  0  0  0
   -1.7166   -0.4000   -3.2619 H   0  0  0  0  0  0  0  0  0  0  0  0
   -3.3514   -0.9895   -2.9008 H   0  0  0  0  0  0  0  0  0  0  0  0
  1  2  1  0  0  0  0
  2  3  1  0  0  0  0
  3  4  2  0  0  0  0
  4  5  2  0  0  0  0
  4  6  2  0  0  0  0
  6  7  1  0  0  0  0
  7  8  1  0  0  0  0
  4  9  1  0  0  0  0
  9 10  1  0  0  0  0
 10 11  1  0  0  0  0
 11 12  1  0  0  0  0
 12 13  2  0  0  0  0
 12 14  2  0  0  0  0
 14 15  1  0  0  0  0
 15 16  1  0  0  0  0
 12 17  1  0  0  0  0
 17 18  1  0  0  0  0
 18 19  1  0  0  0  0
  1 20  1  0  0  0  0
  1 21  1  0  0  0  0
  1 22  1  0  0  0  0
  2 23  1  0  0  0  0
  2 24  1  0  0  0  0
  7 25  1  0  0  0  0
  7 26  1  0  0  0  0
  8 27  1  0  0  0  0
  8 28  1  0  0  0  0
  8 29  1  0  0  0  0
 10 30  1  0  0  0  0
 10 31  1  0  0  0  0
 15 32  1  0  0  0  0
 15 33  1  0  0  0  0
 16 34  1  0  0  0  0
 16 35  1  0  0  0  0
 16 36  1  0  0  0  0
 18 37  1  0  0  0  0
 18 38  1  0  0  0  0
 19 39  1  0  0  0  0
 19 40  1  0  0  0  0
 19 41  1  0  0  0  0
M  END
