 xtb: 6.7.1 (edcfbbe)
          04092505213D

 41 40  0     0  0            999 V2000
    4.3866    0.8895   -2.1382 C   0  0  0  0  0  0  0  0  0  0  0  0
    3.9565   -0.4799   -1.6580 C   0  0  0  0  0  0  0  0  0  0  0  0
    3.5848   -0.4920   -0.2647 O   0  0  0  0  0  0  0  0  0  0  0  0
    2.5109    0.4719    0.3960 P   0  0  0  0  0  0  0  0  0  0  0  0
    3.0201    2.3063    0.8409 S   0  0  0  0  0  0  0  0  0  0  0  0
    2.1353   -0.2893    1.7239 O   0  0  0  0  0  0  0  0  0  0  0  0
    1.8233   -1.7016    1.7827 C   0  0  0  0  0  0  0  0  0  0  0  0
    3.0298   -2.4885    2.2492 C   0  0  0  0  0  0  0  0  0  0  0  0
    0.8366    0.2941   -0.9057 S   0  0  0  0  0  0  0  0  0  0  0  0
   -0.0889    1.6555   -0.1212 C   0  0  0  0  0  0  0  0  0  0  0  0
   -1.7880    1.7232   -0.7160 S   0  0  0  0  0  0  0  0  0  0  0  0
   -2.3830   -0.1326    0.1192 P   0  0  0  0  0  0  0  0  0  0  0  0
   -1.6086   -0.6581    1.8326 S   0  0  0  0  0  0  0  0  0  0  0  0
   -2.1206   -1.2462   -0.9821 O   0  0  0  0  0  0  0  0  0  0  0  0
   -2.6399   -1.1293   -2.3307 C   0  0  0  0  0  0  0  0  0  0  0  0
   -1.5103   -0.8878   -3.3110 C   0  0  0  0  0  0  0  0  0  0  0  0
   -3.9488    0.1736    0.1174 O   0  0  0  0  0  0  0  0  0  0  0  0
   -4.8594   -0.5324    0.9833 C   0  0  0  0  0  0  0  0  0  0  0  0
   -5.0504   -1.9702    0.5432 C   0  0  0  0  0  0  0  0  0  0  0  0
    5.1891    1.2761   -1.5145 H   0  0  0  0  0  0  0  0  0  0  0  0
    4.7296    0.8199   -3.1654 H   0  0  0  0  0  0  0  0  0  0  0  0
    3.5498    1.5848   -2.0887 H   0  0  0  0  0  0  0  0  0  0  0  0
    4.7768   -1.1979   -1.7101 H   0  0  0  0  0  0  0  0  0  0  0  0
    3.1044   -0.8433   -2.2390 H   0  0  0  0  0  0  0  0  0  0  0  0
    0.9945   -1.7729    2.4907 H   0  0  0  0  0  0  0  0  0  0  0  0
    1.4830   -2.0338    0.7977 H   0  0  0  0  0  0  0  0  0  0  0  0
    3.8434   -2.3873    1.5356 H   0  0  0  0  0  0  0  0  0  0  0  0
    3.3620   -2.1163    3.2144 H   0  0  0  0  0  0  0  0  0  0  0  0
    2.7568   -3.5348    2.3421 H   0  0  0  0  0  0  0  0  0  0  0  0
    0.3855    2.6029   -0.3715 H   0  0  0  0  0  0  0  0  0  0  0  0
   -0.0885    1.4959    0.9595 H   0  0  0  0  0  0  0  0  0  0  0  0
   -3.1341   -2.0827   -2.5257 H   0  0  0  0  0  0  0  0  0  0  0  0
   -3.3730   -0.3180   -2.3624 H   0  0  0  0  0  0  0  0  0  0  0  0
   -1.0315    0.0689   -3.1162 H   0  0  0  0  0  0  0  0  0  0  0  0
   -0.7639   -1.6710   -3.2181 H   0  0  0  0  0  0  0  0  0  0  0  0
   -1.9110   -0.8871   -4.3195 H   0  0  0  0  0  0  0  0  0  0  0  0
   -4.4713   -0.4903    2.0059 H   0  0  0  0  0  0  0  0  0  0  0  0
   -5.7852    0.0406    0.9157 H   0  0  0  0  0  0  0  0  0  0  0  0
   -5.4078   -2.0081   -0.4825 H   0  0  0  0  0  0  0  0  0  0  0  0
   -4.1033   -2.5052    0.6114 H   0  0  0  0  0  0  0  0  0  0  0  0
   -5.7743   -2.4513    1.1935 H   0  0  0  0  0  0  0  0  0  0  0  0
  1  2  1  0  0  0  0
  2  3  1  0  0  0  0
  3  4  2  0  0  0  0
  4  5  2  0  0  0  0
  4  6  2  0  0  0  0
  6  7  1  0  0  0  0
  7  8  1  0  0  0  0
  4  9  1  0  0  0  0
  9 10  1  0  0  0  0
 10 11  1  0  0  0  0
 11 12  1  0  0  0  0
 12 13  2  0  0  0  0
 12 14  2  0  0  0  0
 14 15  1  0  0  0  0
 15 16  1  0  0  0  0
 12 17  1  0  0  0  0
 17 18  1  0  0  0  0
 18 19  1  0  0  0  0
  1 20  1  0  0  0  0
  1 21  1  0  0  0  0
  1 22  1  0  0  0  0
  2 23  1  0  0  0  0
  2 24  1  0  0  0  0
  7 25  1  0  0  0  0
  7 26  1  0  0  0  0
  8 27  1  0  0  0  0
  8 28  1  0  0  0  0
  8 29  1  0  0  0  0
 10 30  1  0  0  0  0
 10 31  1  0  0  0  0
 15 32  1  0  0  0  0
 15 33  1  0  0  0  0
 16 34  1  0  0  0  0
 16 35  1  0  0  0  0
 16 36  1  0  0  0  0
 18 37  1  0  0  0  0
 18 38  1  0  0  0  0
 19 39  1  0  0  0  0
 19 40  1  0  0  0  0
 19 41  1  0  0  0  0
M  END
