 xtb: 6.7.1 (edcfbbe)
          04092505213D

 41 40  0     0  0            999 V2000
    4.6022   -1.7952    0.9584 C   0  0  0  0  0  0  0  0  0  0  0  0
    4.2513   -0.3487    1.2351 C   0  0  0  0  0  0  0  0  0  0  0  0
    3.6160    0.2974    0.1145 O   0  0  0  0  0  0  0  0  0  0  0  0
    2.3222   -0.2355   -0.6358 P   0  0  0  0  0  0  0  0  0  0  0  0
    2.5132   -1.7070   -1.9083 S   0  0  0  0  0  0  0  0  0  0  0  0
    1.8296    1.0521   -1.4003 O   0  0  0  0  0  0  0  0  0  0  0  0
    1.7788    2.3757   -0.8187 C   0  0  0  0  0  0  0  0  0  0  0  0
    3.0023    3.1747   -1.2147 C   0  0  0  0  0  0  0  0  0  0  0  0
    0.9690   -0.5972    0.9756 S   0  0  0  0  0  0  0  0  0  0  0  0
   -0.1366   -1.7119    0.0825 C   0  0  0  0  0  0  0  0  0  0  0  0
   -1.1812   -0.8796   -1.1506 S   0  0  0  0  0  0  0  0  0  0  0  0
   -2.2512    0.4246    0.1608 P   0  0  0  0  0  0  0  0  0  0  0  0
   -1.4078    2.1372    0.5777 S   0  0  0  0  0  0  0  0  0  0  0  0
   -2.5862   -0.5169    1.4027 O   0  0  0  0  0  0  0  0  0  0  0  0
   -2.2304   -0.1873    2.7613 C   0  0  0  0  0  0  0  0  0  0  0  0
   -3.3266    0.6322    3.4112 C   0  0  0  0  0  0  0  0  0  0  0  0
   -3.6194    0.6609   -0.5944 O   0  0  0  0  0  0  0  0  0  0  0  0
   -4.7698   -0.2199   -0.5844 C   0  0  0  0  0  0  0  0  0  0  0  0
   -4.4693   -1.6055   -1.1139 C   0  0  0  0  0  0  0  0  0  0  0  0
    3.6963   -2.3818    0.8138 H   0  0  0  0  0  0  0  0  0  0  0  0
    5.2071   -1.8734    0.0582 H   0  0  0  0  0  0  0  0  0  0  0  0
    5.1555   -2.1982    1.8006 H   0  0  0  0  0  0  0  0  0  0  0  0
    5.1457    0.2536    1.4034 H   0  0  0  0  0  0  0  0  0  0  0  0
    3.5831   -0.2696    2.0972 H   0  0  0  0  0  0  0  0  0  0  0  0
    0.8631    2.8204   -1.2140 H   0  0  0  0  0  0  0  0  0  0  0  0
    1.6875    2.2914    0.2676 H   0  0  0  0  0  0  0  0  0  0  0  0
    3.9007    2.7084   -0.8187 H   0  0  0  0  0  0  0  0  0  0  0  0
    3.0790    3.2210   -2.2976 H   0  0  0  0  0  0  0  0  0  0  0  0
    2.9104    4.1802   -0.8165 H   0  0  0  0  0  0  0  0  0  0  0  0
   -0.7593   -2.2055    0.8235 H   0  0  0  0  0  0  0  0  0  0  0  0
    0.4607   -2.4306   -0.4815 H   0  0  0  0  0  0  0  0  0  0  0  0
   -2.0998   -1.1514    3.2546 H   0  0  0  0  0  0  0  0  0  0  0  0
   -1.2843    0.3617    2.7625 H   0  0  0  0  0  0  0  0  0  0  0  0
   -3.4436    1.5762    2.8811 H   0  0  0  0  0  0  0  0  0  0  0  0
   -4.2694    0.0922    3.3885 H   0  0  0  0  0  0  0  0  0  0  0  0
   -3.0561    0.8383    4.4417 H   0  0  0  0  0  0  0  0  0  0  0  0
   -5.1472   -0.2694    0.4391 H   0  0  0  0  0  0  0  0  0  0  0  0
   -5.4859    0.3055   -1.2181 H   0  0  0  0  0  0  0  0  0  0  0  0
   -3.7944   -2.1304   -0.4416 H   0  0  0  0  0  0  0  0  0  0  0  0
   -5.3985   -2.1623   -1.1880 H   0  0  0  0  0  0  0  0  0  0  0  0
   -4.0088   -1.5466   -2.0973 H   0  0  0  0  0  0  0  0  0  0  0  0
  1  2  1  0  0  0  0
  2  3  1  0  0  0  0
  3  4  2  0  0  0  0
  4  5  2  0  0  0  0
  4  6  2  0  0  0  0
  6  7  1  0  0  0  0
  7  8  1  0  0  0  0
  4  9  1  0  0  0  0
  9 10  1  0  0  0  0
 10 11  1  0  0  0  0
 11 12  1  0  0  0  0
 12 13  2  0  0  0  0
 12 14  2  0  0  0  0
 14 15  1  0  0  0  0
 15 16  1  0  0  0  0
 12 17  2  0  0  0  0
 17 18  1  0  0  0  0
 18 19  1  0  0  0  0
  1 20  1  0  0  0  0
  1 21  1  0  0  0  0
  1 22  1  0  0  0  0
  2 23  1  0  0  0  0
  2 24  1  0  0  0  0
  7 25  1  0  0  0  0
  7 26  1  0  0  0  0
  8 27  1  0  0  0  0
  8 28  1  0  0  0  0
  8 29  1  0  0  0  0
 10 30  1  0  0  0  0
 10 31  1  0  0  0  0
 15 32  1  0  0  0  0
 15 33  1  0  0  0  0
 16 34  1  0  0  0  0
 16 35  1  0  0  0  0
 16 36  1  0  0  0  0
 18 37  1  0  0  0  0
 18 38  1  0  0  0  0
 19 39  1  0  0  0  0
 19 40  1  0  0  0  0
 19 41  1  0  0  0  0
M  END
