 xtb: 6.7.1 (edcfbbe)
          04092505213D

 41 40  0     0  0            999 V2000
    5.3823    0.1743   -2.2599 C   0  0  0  0  0  0  0  0  0  0  0  0
    4.0661   -0.5283   -1.9972 C   0  0  0  0  0  0  0  0  0  0  0  0
    3.4545    0.0917   -0.8473 O   0  0  0  0  0  0  0  0  0  0  0  0
    1.9147   -0.1054   -0.5294 P   0  0  0  0  0  0  0  0  0  0  0  0
    0.7284    0.2891   -2.0370 S   0  0  0  0  0  0  0  0  0  0  0  0
    1.6690    0.8483    0.6924 O   0  0  0  0  0  0  0  0  0  0  0  0
    2.1107    0.6572    2.0610 C   0  0  0  0  0  0  0  0  0  0  0  0
    3.6006    0.4262    2.1751 C   0  0  0  0  0  0  0  0  0  0  0  0
    1.7980   -2.1105    0.1626 S   0  0  0  0  0  0  0  0  0  0  0  0
    0.0029   -2.2736    0.0448 C   0  0  0  0  0  0  0  0  0  0  0  0
   -0.8808   -1.3814    1.3718 S   0  0  0  0  0  0  0  0  0  0  0  0
   -1.9896    0.1515    0.4004 P   0  0  0  0  0  0  0  0  0  0  0  0
   -1.3057    1.9927    0.3843 S   0  0  0  0  0  0  0  0  0  0  0  0
   -3.3752    0.0164    1.1742 O   0  0  0  0  0  0  0  0  0  0  0  0
   -3.6543    0.7098    2.4055 C   0  0  0  0  0  0  0  0  0  0  0  0
   -4.5820    1.8819    2.1491 C   0  0  0  0  0  0  0  0  0  0  0  0
   -2.3138   -0.5607   -0.9701 O   0  0  0  0  0  0  0  0  0  0  0  0
   -2.7567    0.1766   -2.1286 C   0  0  0  0  0  0  0  0  0  0  0  0
   -4.1296    0.7751   -1.9178 C   0  0  0  0  0  0  0  0  0  0  0  0
    6.0323    0.0825   -1.3948 H   0  0  0  0  0  0  0  0  0  0  0  0
    5.8617   -0.2800   -3.1207 H   0  0  0  0  0  0  0  0  0  0  0  0
    5.2089    1.2279   -2.4605 H   0  0  0  0  0  0  0  0  0  0  0  0
    4.2147   -1.5874   -1.7715 H   0  0  0  0  0  0  0  0  0  0  0  0
    3.3836   -0.4352   -2.8487 H   0  0  0  0  0  0  0  0  0  0  0  0
    1.8026    1.5861    2.5442 H   0  0  0  0  0  0  0  0  0  0  0  0
    1.5473   -0.1800    2.4843 H   0  0  0  0  0  0  0  0  0  0  0  0
    3.8722    0.4127    3.2261 H   0  0  0  0  0  0  0  0  0  0  0  0
    3.8719   -0.5274    1.7267 H   0  0  0  0  0  0  0  0  0  0  0  0
    4.1437    1.2221    1.6722 H   0  0  0  0  0  0  0  0  0  0  0  0
   -0.2230   -3.3290    0.1687 H   0  0  0  0  0  0  0  0  0  0  0  0
   -0.3326   -1.8991   -0.9224 H   0  0  0  0  0  0  0  0  0  0  0  0
   -4.1185   -0.0352    3.0541 H   0  0  0  0  0  0  0  0  0  0  0  0
   -2.7158    1.0515    2.8511 H   0  0  0  0  0  0  0  0  0  0  0  0
   -5.4830    1.5422    1.6464 H   0  0  0  0  0  0  0  0  0  0  0  0
   -4.8477    2.3411    3.0957 H   0  0  0  0  0  0  0  0  0  0  0  0
   -4.0824    2.6201    1.5252 H   0  0  0  0  0  0  0  0  0  0  0  0
   -2.0156    0.9516   -2.3501 H   0  0  0  0  0  0  0  0  0  0  0  0
   -2.7491   -0.5674   -2.9263 H   0  0  0  0  0  0  0  0  0  0  0  0
   -4.4646    1.2363   -2.8415 H   0  0  0  0  0  0  0  0  0  0  0  0
   -4.8328    0.0024   -1.6185 H   0  0  0  0  0  0  0  0  0  0  0  0
   -4.0837    1.5342   -1.1380 H   0  0  0  0  0  0  0  0  0  0  0  0
  1  2  1  0  0  0  0
  2  3  1  0  0  0  0
  3  4  2  0  0  0  0
  4  5  2  0  0  0  0
  4  6  2  0  0  0  0
  6  7  1  0  0  0  0
  7  8  1  0  0  0  0
  4  9  1  0  0  0  0
  9 10  1  0  0  0  0
 10 11  1  0  0  0  0
 11 12  1  0  0  0  0
 12 13  2  0  0  0  0
 12 14  2  0  0  0  0
 14 15  1  0  0  0  0
 15 16  1  0  0  0  0
 12 17  2  0  0  0  0
 17 18  1  0  0  0  0
 18 19  1  0  0  0  0
  1 20  1  0  0  0  0
  1 21  1  0  0  0  0
  1 22  1  0  0  0  0
  2 23  1  0  0  0  0
  2 24  1  0  0  0  0
  7 25  1  0  0  0  0
  7 26  1  0  0  0  0
  8 27  1  0  0  0  0
  8 28  1  0  0  0  0
  8 29  1  0  0  0  0
 10 30  1  0  0  0  0
 10 31  1  0  0  0  0
 15 32  1  0  0  0  0
 15 33  1  0  0  0  0
 16 34  1  0  0  0  0
 16 35  1  0  0  0  0
 16 36  1  0  0  0  0
 18 37  1  0  0  0  0
 18 38  1  0  0  0  0
 19 39  1  0  0  0  0
 19 40  1  0  0  0  0
 19 41  1  0  0  0  0
M  END
