 xtb: 6.7.1 (edcfbbe)
          04092505203D

 41 40  0     0  0            999 V2000
    4.4218   -1.6693   -0.8840 C   0  0  0  0  0  0  0  0  0  0  0  0
    4.7074   -0.1845   -0.7813 C   0  0  0  0  0  0  0  0  0  0  0  0
    3.7160    0.5154   -0.0125 O   0  0  0  0  0  0  0  0  0  0  0  0
    2.1987    0.6571   -0.4793 P   0  0  0  0  0  0  0  0  0  0  0  0
    2.0003    0.9144   -2.4085 S   0  0  0  0  0  0  0  0  0  0  0  0
    1.7390    1.9072    0.3599 O   0  0  0  0  0  0  0  0  0  0  0  0
    1.3791    1.9409    1.7600 C   0  0  0  0  0  0  0  0  0  0  0  0
    2.4415    1.3412    2.6549 C   0  0  0  0  0  0  0  0  0  0  0  0
    1.2526   -1.0585    0.3618 S   0  0  0  0  0  0  0  0  0  0  0  0
    0.2813   -1.6374   -1.0644 C   0  0  0  0  0  0  0  0  0  0  0  0
   -1.4325   -2.0005   -0.6262 S   0  0  0  0  0  0  0  0  0  0  0  0
   -1.9676   -0.0837    0.1289 P   0  0  0  0  0  0  0  0  0  0  0  0
   -1.2571    1.4554   -0.8563 S   0  0  0  0  0  0  0  0  0  0  0  0
   -1.5543   -0.0558    1.6470 O   0  0  0  0  0  0  0  0  0  0  0  0
   -1.9694   -1.0634    2.6090 C   0  0  0  0  0  0  0  0  0  0  0  0
   -3.1741   -0.5866    3.3923 C   0  0  0  0  0  0  0  0  0  0  0  0
   -3.5497   -0.1844    0.1950 O   0  0  0  0  0  0  0  0  0  0  0  0
   -4.3490   -0.1867   -1.0060 C   0  0  0  0  0  0  0  0  0  0  0  0
   -5.7942    0.0183   -0.6001 C   0  0  0  0  0  0  0  0  0  0  0  0
    4.2573   -2.0946    0.1027 H   0  0  0  0  0  0  0  0  0  0  0  0
    3.5356   -1.8321   -1.4958 H   0  0  0  0  0  0  0  0  0  0  0  0
    5.2662   -2.1629   -1.3542 H   0  0  0  0  0  0  0  0  0  0  0  0
    4.7515    0.2659   -1.7779 H   0  0  0  0  0  0  0  0  0  0  0  0
    5.6363    0.0112   -0.2438 H   0  0  0  0  0  0  0  0  0  0  0  0
    1.2385    3.0060    1.9514 H   0  0  0  0  0  0  0  0  0  0  0  0
    0.4212    1.4243    1.8755 H   0  0  0  0  0  0  0  0  0  0  0  0
    2.1465    1.4739    3.6912 H   0  0  0  0  0  0  0  0  0  0  0  0
    2.5514    0.2774    2.4491 H   0  0  0  0  0  0  0  0  0  0  0  0
    3.3956    1.8329    2.4836 H   0  0  0  0  0  0  0  0  0  0  0  0
    0.7012   -2.5748   -1.4209 H   0  0  0  0  0  0  0  0  0  0  0  0
    0.3175   -0.8671   -1.8405 H   0  0  0  0  0  0  0  0  0  0  0  0
   -2.1832   -1.9933    2.0755 H   0  0  0  0  0  0  0  0  0  0  0  0
   -1.0977   -1.1992    3.2515 H   0  0  0  0  0  0  0  0  0  0  0  0
   -2.9526    0.3577    3.8817 H   0  0  0  0  0  0  0  0  0  0  0  0
   -4.0228   -0.4460    2.7285 H   0  0  0  0  0  0  0  0  0  0  0  0
   -3.4241   -1.3298    4.1428 H   0  0  0  0  0  0  0  0  0  0  0  0
   -3.9951    0.6167   -1.6604 H   0  0  0  0  0  0  0  0  0  0  0  0
   -4.2069   -1.1466   -1.5098 H   0  0  0  0  0  0  0  0  0  0  0  0
   -6.4159    0.0200   -1.4893 H   0  0  0  0  0  0  0  0  0  0  0  0
   -6.1124   -0.7840    0.0591 H   0  0  0  0  0  0  0  0  0  0  0  0
   -5.9060    0.9674   -0.0835 H   0  0  0  0  0  0  0  0  0  0  0  0
  1  2  1  0  0  0  0
  2  3  1  0  0  0  0
  3  4  2  0  0  0  0
  4  5  2  0  0  0  0
  4  6  2  0  0  0  0
  6  7  1  0  0  0  0
  7  8  1  0  0  0  0
  4  9  1  0  0  0  0
  9 10  1  0  0  0  0
 10 11  1  0  0  0  0
 11 12  1  0  0  0  0
 12 13  2  0  0  0  0
 12 14  2  0  0  0  0
 14 15  1  0  0  0  0
 15 16  1  0  0  0  0
 12 17  2  0  0  0  0
 17 18  1  0  0  0  0
 18 19  1  0  0  0  0
  1 20  1  0  0  0  0
  1 21  1  0  0  0  0
  1 22  1  0  0  0  0
  2 23  1  0  0  0  0
  2 24  1  0  0  0  0
  7 25  1  0  0  0  0
  7 26  1  0  0  0  0
  8 27  1  0  0  0  0
  8 28  1  0  0  0  0
  8 29  1  0  0  0  0
 10 30  1  0  0  0  0
 10 31  1  0  0  0  0
 15 32  1  0  0  0  0
 15 33  1  0  0  0  0
 16 34  1  0  0  0  0
 16 35  1  0  0  0  0
 16 36  1  0  0  0  0
 18 37  1  0  0  0  0
 18 38  1  0  0  0  0
 19 39  1  0  0  0  0
 19 40  1  0  0  0  0
 19 41  1  0  0  0  0
M  END
