 xtb: 6.7.1 (edcfbbe)
          04092505203D

 41 40  0     0  0            999 V2000
    4.0391   -0.2612   -2.5983 C   0  0  0  0  0  0  0  0  0  0  0  0
    4.2783    0.6473   -1.4096 C   0  0  0  0  0  0  0  0  0  0  0  0
    3.7280    0.1035   -0.1989 O   0  0  0  0  0  0  0  0  0  0  0  0
    2.1645   -0.0398    0.0426 P   0  0  0  0  0  0  0  0  0  0  0  0
    1.1249    1.4888   -0.6334 S   0  0  0  0  0  0  0  0  0  0  0  0
    2.0779   -0.3211    1.5966 O   0  0  0  0  0  0  0  0  0  0  0  0
    1.9853    0.7242    2.5843 C   0  0  0  0  0  0  0  0  0  0  0  0
    3.2252    1.5912    2.6118 C   0  0  0  0  0  0  0  0  0  0  0  0
    1.7684   -1.9850   -0.6577 S   0  0  0  0  0  0  0  0  0  0  0  0
    0.0279   -2.1704   -0.1904 C   0  0  0  0  0  0  0  0  0  0  0  0
   -1.1451   -1.4272   -1.3810 S   0  0  0  0  0  0  0  0  0  0  0  0
   -2.0925    0.0170   -0.1627 P   0  0  0  0  0  0  0  0  0  0  0  0
   -1.4269    0.1784    1.6800 S   0  0  0  0  0  0  0  0  0  0  0  0
   -3.6364   -0.3555   -0.3048 O   0  0  0  0  0  0  0  0  0  0  0  0
   -4.2073   -1.5955    0.1480 C   0  0  0  0  0  0  0  0  0  0  0  0
   -4.6302   -1.5226    1.6031 C   0  0  0  0  0  0  0  0  0  0  0  0
   -2.0550    1.3059   -1.0691 O   0  0  0  0  0  0  0  0  0  0  0  0
   -2.1401    2.6404   -0.5339 C   0  0  0  0  0  0  0  0  0  0  0  0
   -3.5037    2.9145    0.0628 C   0  0  0  0  0  0  0  0  0  0  0  0
    4.3895   -1.2670   -2.3811 H   0  0  0  0  0  0  0  0  0  0  0  0
    2.9739   -0.3044   -2.8247 H   0  0  0  0  0  0  0  0  0  0  0  0
    4.5667    0.1285   -3.4629 H   0  0  0  0  0  0  0  0  0  0  0  0
    3.8311    1.6320   -1.5821 H   0  0  0  0  0  0  0  0  0  0  0  0
    5.3412    0.7542   -1.1899 H   0  0  0  0  0  0  0  0  0  0  0  0
    1.0922    1.3215    2.3748 H   0  0  0  0  0  0  0  0  0  0  0  0
    1.8430    0.1815    3.5197 H   0  0  0  0  0  0  0  0  0  0  0  0
    3.1555    2.2899    3.4395 H   0  0  0  0  0  0  0  0  0  0  0  0
    4.1113    0.9730    2.7296 H   0  0  0  0  0  0  0  0  0  0  0  0
    3.3061    2.1514    1.6809 H   0  0  0  0  0  0  0  0  0  0  0  0
   -0.1380   -1.7246    0.7945 H   0  0  0  0  0  0  0  0  0  0  0  0
   -0.1560   -3.2411   -0.1800 H   0  0  0  0  0  0  0  0  0  0  0  0
   -5.0685   -1.7460   -0.5059 H   0  0  0  0  0  0  0  0  0  0  0  0
   -3.4848   -2.4018   -0.0140 H   0  0  0  0  0  0  0  0  0  0  0  0
   -5.1023   -2.4585    1.8839 H   0  0  0  0  0  0  0  0  0  0  0  0
   -3.7675   -1.3539    2.2436 H   0  0  0  0  0  0  0  0  0  0  0  0
   -5.3348   -0.7082    1.7470 H   0  0  0  0  0  0  0  0  0  0  0  0
   -1.3481    2.7684    0.2112 H   0  0  0  0  0  0  0  0  0  0  0  0
   -1.9285    3.2776   -1.3935 H   0  0  0  0  0  0  0  0  0  0  0  0
   -4.2791    2.7243   -0.6745 H   0  0  0  0  0  0  0  0  0  0  0  0
   -3.6665    2.2628    0.9209 H   0  0  0  0  0  0  0  0  0  0  0  0
   -3.5538    3.9489    0.3878 H   0  0  0  0  0  0  0  0  0  0  0  0
  1  2  1  0  0  0  0
  2  3  1  0  0  0  0
  3  4  2  0  0  0  0
  4  5  2  0  0  0  0
  4  6  2  0  0  0  0
  6  7  1  0  0  0  0
  7  8  1  0  0  0  0
  4  9  1  0  0  0  0
  9 10  1  0  0  0  0
 10 11  1  0  0  0  0
 11 12  1  0  0  0  0
 12 13  2  0  0  0  0
 12 14  2  0  0  0  0
 14 15  1  0  0  0  0
 15 16  1  0  0  0  0
 12 17  2  0  0  0  0
 17 18  1  0  0  0  0
 18 19  1  0  0  0  0
  1 20  1  0  0  0  0
  1 21  1  0  0  0  0
  1 22  1  0  0  0  0
  2 23  1  0  0  0  0
  2 24  1  0  0  0  0
  7 25  1  0  0  0  0
  7 26  1  0  0  0  0
  8 27  1  0  0  0  0
  8 28  1  0  0  0  0
  8 29  1  0  0  0  0
 10 30  1  0  0  0  0
 10 31  1  0  0  0  0
 15 32  1  0  0  0  0
 15 33  1  0  0  0  0
 16 34  1  0  0  0  0
 16 35  1  0  0  0  0
 16 36  1  0  0  0  0
 18 37  1  0  0  0  0
 18 38  1  0  0  0  0
 19 39  1  0  0  0  0
 19 40  1  0  0  0  0
 19 41  1  0  0  0  0
M  END
