 xtb: 6.7.1 (edcfbbe)
          04092505203D

 41 40  0     0  0            999 V2000
    4.1104   -1.8701   -1.3093 C   0  0  0  0  0  0  0  0  0  0  0  0
    4.6126   -0.4588   -1.0782 C   0  0  0  0  0  0  0  0  0  0  0  0
    3.8133    0.2613   -0.1279 O   0  0  0  0  0  0  0  0  0  0  0  0
    2.2830    0.6372   -0.3804 P   0  0  0  0  0  0  0  0  0  0  0  0
    1.9136    1.1548   -2.2332 S   0  0  0  0  0  0  0  0  0  0  0  0
    2.0990    1.8229    0.6383 O   0  0  0  0  0  0  0  0  0  0  0  0
    1.8487    1.7057    2.0579 C   0  0  0  0  0  0  0  0  0  0  0  0
    2.9014    0.8872    2.7726 C   0  0  0  0  0  0  0  0  0  0  0  0
    1.2062   -1.0248    0.3916 S   0  0  0  0  0  0  0  0  0  0  0  0
    0.1048   -1.3904   -1.0172 C   0  0  0  0  0  0  0  0  0  0  0  0
   -1.5797   -1.7888   -0.5163 S   0  0  0  0  0  0  0  0  0  0  0  0
   -2.3447    0.1400   -0.0207 P   0  0  0  0  0  0  0  0  0  0  0  0
   -1.0466    1.6120   -0.0851 S   0  0  0  0  0  0  0  0  0  0  0  0
   -3.0973   -0.0331    1.3692 O   0  0  0  0  0  0  0  0  0  0  0  0
   -2.4341    0.0835    2.6404 C   0  0  0  0  0  0  0  0  0  0  0  0
   -1.6381   -1.1589    2.9874 C   0  0  0  0  0  0  0  0  0  0  0  0
   -3.5435    0.3963   -1.0123 O   0  0  0  0  0  0  0  0  0  0  0  0
   -4.8672   -0.1816   -0.8877 C   0  0  0  0  0  0  0  0  0  0  0  0
   -4.8517   -1.6939   -0.9470 C   0  0  0  0  0  0  0  0  0  0  0  0
    3.9854   -2.3896   -0.3627 H   0  0  0  0  0  0  0  0  0  0  0  0
    3.1541   -1.8385   -1.8303 H   0  0  0  0  0  0  0  0  0  0  0  0
    4.8249   -2.4070   -1.9248 H   0  0  0  0  0  0  0  0  0  0  0  0
    4.6205    0.1027   -2.0180 H   0  0  0  0  0  0  0  0  0  0  0  0
    5.6092   -0.4533   -0.6344 H   0  0  0  0  0  0  0  0  0  0  0  0
    1.8400    2.7440    2.3927 H   0  0  0  0  0  0  0  0  0  0  0  0
    0.8524    1.2739    2.1880 H   0  0  0  0  0  0  0  0  0  0  0  0
    3.8891    1.2965    2.5781 H   0  0  0  0  0  0  0  0  0  0  0  0
    2.7029    0.9099    3.8395 H   0  0  0  0  0  0  0  0  0  0  0  0
    2.8731   -0.1452    2.4275 H   0  0  0  0  0  0  0  0  0  0  0  0
    0.4715   -2.2820   -1.5201 H   0  0  0  0  0  0  0  0  0  0  0  0
    0.1135   -0.5269   -1.6870 H   0  0  0  0  0  0  0  0  0  0  0  0
   -1.7926    0.9708    2.6151 H   0  0  0  0  0  0  0  0  0  0  0  0
   -3.2512    0.2429    3.3459 H   0  0  0  0  0  0  0  0  0  0  0  0
   -0.7847   -1.2706    2.3208 H   0  0  0  0  0  0  0  0  0  0  0  0
   -1.2756   -1.0740    4.0067 H   0  0  0  0  0  0  0  0  0  0  0  0
   -2.2652   -2.0420    2.9021 H   0  0  0  0  0  0  0  0  0  0  0  0
   -5.3022    0.1690    0.0499 H   0  0  0  0  0  0  0  0  0  0  0  0
   -5.4058    0.2503   -1.7326 H   0  0  0  0  0  0  0  0  0  0  0  0
   -5.8740   -2.0582   -0.9178 H   0  0  0  0  0  0  0  0  0  0  0  0
   -4.3757   -2.0355   -1.8623 H   0  0  0  0  0  0  0  0  0  0  0  0
   -4.3055   -2.0995   -0.0972 H   0  0  0  0  0  0  0  0  0  0  0  0
  1  2  1  0  0  0  0
  2  3  1  0  0  0  0
  3  4  2  0  0  0  0
  4  5  2  0  0  0  0
  4  6  2  0  0  0  0
  6  7  1  0  0  0  0
  7  8  1  0  0  0  0
  4  9  1  0  0  0  0
  9 10  1  0  0  0  0
 10 11  1  0  0  0  0
 11 12  1  0  0  0  0
 12 13  2  0  0  0  0
 12 14  2  0  0  0  0
 14 15  1  0  0  0  0
 15 16  1  0  0  0  0
 12 17  2  0  0  0  0
 17 18  1  0  0  0  0
 18 19  1  0  0  0  0
  1 20  1  0  0  0  0
  1 21  1  0  0  0  0
  1 22  1  0  0  0  0
  2 23  1  0  0  0  0
  2 24  1  0  0  0  0
  7 25  1  0  0  0  0
  7 26  1  0  0  0  0
  8 27  1  0  0  0  0
  8 28  1  0  0  0  0
  8 29  1  0  0  0  0
 10 30  1  0  0  0  0
 10 31  1  0  0  0  0
 15 32  1  0  0  0  0
 15 33  1  0  0  0  0
 16 34  1  0  0  0  0
 16 35  1  0  0  0  0
 16 36  1  0  0  0  0
 18 37  1  0  0  0  0
 18 38  1  0  0  0  0
 19 39  1  0  0  0  0
 19 40  1  0  0  0  0
 19 41  1  0  0  0  0
M  END
