 xtb: 6.7.1 (edcfbbe)
          04092505213D

 41 40  0     0  0            999 V2000
    2.8393   -1.6683   -2.5458 C   0  0  0  0  0  0  0  0  0  0  0  0
    3.0415   -0.4845   -1.6219 C   0  0  0  0  0  0  0  0  0  0  0  0
    2.7394   -0.8800   -0.2699 O   0  0  0  0  0  0  0  0  0  0  0  0
    1.8510   -0.0875    0.7848 P   0  0  0  0  0  0  0  0  0  0  0  0
    1.2454    1.6929    0.1894 S   0  0  0  0  0  0  0  0  0  0  0  0
    2.7307   -0.0289    2.1088 O   0  0  0  0  0  0  0  0  0  0  0  0
    3.5880    1.0808    2.4291 C   0  0  0  0  0  0  0  0  0  0  0  0
    4.7726    1.1665    1.4876 C   0  0  0  0  0  0  0  0  0  0  0  0
    0.6020   -1.5736    1.5811 S   0  0  0  0  0  0  0  0  0  0  0  0
   -0.2792   -2.1739    0.0877 C   0  0  0  0  0  0  0  0  0  0  0  0
   -0.3676   -0.9773   -1.2660 S   0  0  0  0  0  0  0  0  0  0  0  0
   -1.9108    0.2826   -0.5596 P   0  0  0  0  0  0  0  0  0  0  0  0
   -2.2124    1.9504   -1.5355 S   0  0  0  0  0  0  0  0  0  0  0  0
   -1.5254    0.3702    0.9756 O   0  0  0  0  0  0  0  0  0  0  0  0
   -1.9561    1.4619    1.8093 C   0  0  0  0  0  0  0  0  0  0  0  0
   -3.4536    1.4460    2.0253 C   0  0  0  0  0  0  0  0  0  0  0  0
   -3.1844   -0.6772   -0.4728 O   0  0  0  0  0  0  0  0  0  0  0  0
   -4.1123   -0.8159   -1.5598 C   0  0  0  0  0  0  0  0  0  0  0  0
   -3.5074   -1.5595   -2.7340 C   0  0  0  0  0  0  0  0  0  0  0  0
    3.1682   -1.3952   -3.5430 H   0  0  0  0  0  0  0  0  0  0  0  0
    3.4224   -2.5137   -2.1926 H   0  0  0  0  0  0  0  0  0  0  0  0
    1.7885   -1.9453   -2.5821 H   0  0  0  0  0  0  0  0  0  0  0  0
    2.4007    0.3595   -1.8993 H   0  0  0  0  0  0  0  0  0  0  0  0
    4.0845   -0.1587   -1.6253 H   0  0  0  0  0  0  0  0  0  0  0  0
    2.9973    2.0020    2.3881 H   0  0  0  0  0  0  0  0  0  0  0  0
    3.8993    0.8841    3.4560 H   0  0  0  0  0  0  0  0  0  0  0  0
    4.4276    1.4256    0.4867 H   0  0  0  0  0  0  0  0  0  0  0  0
    5.4546    1.9364    1.8344 H   0  0  0  0  0  0  0  0  0  0  0  0
    5.2909    0.2118    1.4505 H   0  0  0  0  0  0  0  0  0  0  0  0
   -1.2841   -2.4446    0.4055 H   0  0  0  0  0  0  0  0  0  0  0  0
    0.2578   -3.0328   -0.3084 H   0  0  0  0  0  0  0  0  0  0  0  0
   -1.4059    1.3088    2.7398 H   0  0  0  0  0  0  0  0  0  0  0  0
   -1.6332    2.3995    1.3439 H   0  0  0  0  0  0  0  0  0  0  0  0
   -3.9631    1.6329    1.0805 H   0  0  0  0  0  0  0  0  0  0  0  0
   -3.7654    0.4797    2.4128 H   0  0  0  0  0  0  0  0  0  0  0  0
   -3.7216    2.2256    2.7314 H   0  0  0  0  0  0  0  0  0  0  0  0
   -4.9507   -1.3605   -1.1235 H   0  0  0  0  0  0  0  0  0  0  0  0
   -4.4346    0.1841   -1.8670 H   0  0  0  0  0  0  0  0  0  0  0  0
   -3.1238   -2.5261   -2.4184 H   0  0  0  0  0  0  0  0  0  0  0  0
   -4.2673   -1.7047   -3.4949 H   0  0  0  0  0  0  0  0  0  0  0  0
   -2.6899   -0.9770   -3.1586 H   0  0  0  0  0  0  0  0  0  0  0  0
  1  2  1  0  0  0  0
  2  3  1  0  0  0  0
  3  4  2  0  0  0  0
  4  5  2  0  0  0  0
  4  6  2  0  0  0  0
  6  7  1  0  0  0  0
  7  8  1  0  0  0  0
  4  9  1  0  0  0  0
  9 10  1  0  0  0  0
 10 11  1  0  0  0  0
 11 12  1  0  0  0  0
 12 13  2  0  0  0  0
 12 14  2  0  0  0  0
 14 15  1  0  0  0  0
 15 16  1  0  0  0  0
 12 17  2  0  0  0  0
 17 18  1  0  0  0  0
 18 19  1  0  0  0  0
  1 20  1  0  0  0  0
  1 21  1  0  0  0  0
  1 22  1  0  0  0  0
  2 23  1  0  0  0  0
  2 24  1  0  0  0  0
  7 25  1  0  0  0  0
  7 26  1  0  0  0  0
  8 27  1  0  0  0  0
  8 28  1  0  0  0  0
  8 29  1  0  0  0  0
 10 30  1  0  0  0  0
 10 31  1  0  0  0  0
 15 32  1  0  0  0  0
 15 33  1  0  0  0  0
 16 34  1  0  0  0  0
 16 35  1  0  0  0  0
 16 36  1  0  0  0  0
 18 37  1  0  0  0  0
 18 38  1  0  0  0  0
 19 39  1  0  0  0  0
 19 40  1  0  0  0  0
 19 41  1  0  0  0  0
M  END
