 xtb: 6.7.1 (edcfbbe)
          04092505213D

 41 40  0     0  0            999 V2000
    4.2342   -1.3552   -2.4621 C   0  0  0  0  0  0  0  0  0  0  0  0
    4.8929   -1.1010   -1.1214 C   0  0  0  0  0  0  0  0  0  0  0  0
    3.9529   -1.1407   -0.0340 O   0  0  0  0  0  0  0  0  0  0  0  0
    2.8074   -0.0561    0.1482 P   0  0  0  0  0  0  0  0  0  0  0  0
    3.3366    1.7838   -0.2637 S   0  0  0  0  0  0  0  0  0  0  0  0
    2.4187   -0.1993    1.6674 O   0  0  0  0  0  0  0  0  0  0  0  0
    1.6672   -1.2712    2.2874 C   0  0  0  0  0  0  0  0  0  0  0  0
    2.2148   -2.6439    1.9637 C   0  0  0  0  0  0  0  0  0  0  0  0
    1.1619   -0.8123   -0.9792 S   0  0  0  0  0  0  0  0  0  0  0  0
    0.2067    0.7178   -0.9886 C   0  0  0  0  0  0  0  0  0  0  0  0
   -0.6464    1.0336    0.5856 S   0  0  0  0  0  0  0  0  0  0  0  0
   -2.6515    0.6377    0.0100 P   0  0  0  0  0  0  0  0  0  0  0  0
   -2.9595    0.4664   -1.9243 S   0  0  0  0  0  0  0  0  0  0  0  0
   -3.2904    1.8639    0.7788 O   0  0  0  0  0  0  0  0  0  0  0  0
   -4.6614    1.9123    1.2313 C   0  0  0  0  0  0  0  0  0  0  0  0
   -5.6490    1.8153    0.0868 C   0  0  0  0  0  0  0  0  0  0  0  0
   -3.1935   -0.5906    0.8658 O   0  0  0  0  0  0  0  0  0  0  0  0
   -3.1923   -1.9420    0.3742 C   0  0  0  0  0  0  0  0  0  0  0  0
   -1.8301   -2.5883    0.5166 C   0  0  0  0  0  0  0  0  0  0  0  0
    3.5825   -0.5225   -2.7221 H   0  0  0  0  0  0  0  0  0  0  0  0
    5.0004   -1.4502   -3.2248 H   0  0  0  0  0  0  0  0  0  0  0  0
    3.6431   -2.2667   -2.4281 H   0  0  0  0  0  0  0  0  0  0  0  0
    5.3883   -0.1249   -1.1156 H   0  0  0  0  0  0  0  0  0  0  0  0
    5.6111   -1.8831   -0.8712 H   0  0  0  0  0  0  0  0  0  0  0  0
    1.7461   -1.0427    3.3513 H   0  0  0  0  0  0  0  0  0  0  0  0
    0.6259   -1.1744    1.9695 H   0  0  0  0  0  0  0  0  0  0  0  0
    3.2692   -2.6975    2.2212 H   0  0  0  0  0  0  0  0  0  0  0  0
    1.6670   -3.3871    2.5348 H   0  0  0  0  0  0  0  0  0  0  0  0
    2.1001   -2.8559    0.9025 H   0  0  0  0  0  0  0  0  0  0  0  0
   -0.5376    0.6382   -1.7852 H   0  0  0  0  0  0  0  0  0  0  0  0
    0.8891    1.5506   -1.1648 H   0  0  0  0  0  0  0  0  0  0  0  0
   -4.8148    1.1057    1.9513 H   0  0  0  0  0  0  0  0  0  0  0  0
   -4.7268    2.8780    1.7354 H   0  0  0  0  0  0  0  0  0  0  0  0
   -6.6579    1.9350    0.4688 H   0  0  0  0  0  0  0  0  0  0  0  0
   -5.4496    2.5891   -0.6511 H   0  0  0  0  0  0  0  0  0  0  0  0
   -5.5659    0.8449   -0.4011 H   0  0  0  0  0  0  0  0  0  0  0  0
   -3.9418   -2.4474    0.9852 H   0  0  0  0  0  0  0  0  0  0  0  0
   -3.5103   -1.9324   -0.6737 H   0  0  0  0  0  0  0  0  0  0  0  0
   -1.8972   -3.6324    0.2288 H   0  0  0  0  0  0  0  0  0  0  0  0
   -1.1087   -2.0949   -0.1337 H   0  0  0  0  0  0  0  0  0  0  0  0
   -1.4888   -2.5214    1.5464 H   0  0  0  0  0  0  0  0  0  0  0  0
  1  2  1  0  0  0  0
  2  3  1  0  0  0  0
  3  4  2  0  0  0  0
  4  5  2  0  0  0  0
  4  6  2  0  0  0  0
  6  7  1  0  0  0  0
  7  8  1  0  0  0  0
  4  9  1  0  0  0  0
  9 10  1  0  0  0  0
 10 11  1  0  0  0  0
 11 12  1  0  0  0  0
 12 13  2  0  0  0  0
 12 14  2  0  0  0  0
 14 15  1  0  0  0  0
 15 16  1  0  0  0  0
 12 17  2  0  0  0  0
 17 18  1  0  0  0  0
 18 19  1  0  0  0  0
  1 20  1  0  0  0  0
  1 21  1  0  0  0  0
  1 22  1  0  0  0  0
  2 23  1  0  0  0  0
  2 24  1  0  0  0  0
  7 25  1  0  0  0  0
  7 26  1  0  0  0  0
  8 27  1  0  0  0  0
  8 28  1  0  0  0  0
  8 29  1  0  0  0  0
 10 30  1  0  0  0  0
 10 31  1  0  0  0  0
 15 32  1  0  0  0  0
 15 33  1  0  0  0  0
 16 34  1  0  0  0  0
 16 35  1  0  0  0  0
 16 36  1  0  0  0  0
 18 37  1  0  0  0  0
 18 38  1  0  0  0  0
 19 39  1  0  0  0  0
 19 40  1  0  0  0  0
 19 41  1  0  0  0  0
M  END
