 xtb: 6.7.1 (edcfbbe)
          04092505213D

 41 40  0     0  0            999 V2000
    3.9124   -1.9140   -2.3513 C   0  0  0  0  0  0  0  0  0  0  0  0
    4.0201   -0.4079   -2.2308 C   0  0  0  0  0  0  0  0  0  0  0  0
    3.4722    0.0872   -0.9941 O   0  0  0  0  0  0  0  0  0  0  0  0
    1.9250    0.0013   -0.6395 P   0  0  0  0  0  0  0  0  0  0  0  0
    0.7023    0.3410   -2.1251 S   0  0  0  0  0  0  0  0  0  0  0  0
    1.8010    1.0589    0.5233 O   0  0  0  0  0  0  0  0  0  0  0  0
    2.6987    1.1186    1.6644 C   0  0  0  0  0  0  0  0  0  0  0  0
    1.9822    0.6727    2.9231 C   0  0  0  0  0  0  0  0  0  0  0  0
    1.7110   -1.9040    0.2688 S   0  0  0  0  0  0  0  0  0  0  0  0
   -0.0951   -1.9648    0.2188 C   0  0  0  0  0  0  0  0  0  0  0  0
   -0.8983   -0.9669    1.5219 S   0  0  0  0  0  0  0  0  0  0  0  0
   -1.8331    0.6347    0.5234 P   0  0  0  0  0  0  0  0  0  0  0  0
   -1.0211    2.3917    0.2413 S   0  0  0  0  0  0  0  0  0  0  0  0
   -3.1160    0.8858    1.4302 O   0  0  0  0  0  0  0  0  0  0  0  0
   -4.0392   -0.1571    1.8274 C   0  0  0  0  0  0  0  0  0  0  0  0
   -3.8759   -0.4718    3.3011 C   0  0  0  0  0  0  0  0  0  0  0  0
   -2.3374   -0.1527   -0.7750 O   0  0  0  0  0  0  0  0  0  0  0  0
   -2.8320    0.5416   -1.9379 C   0  0  0  0  0  0  0  0  0  0  0  0
   -2.7979   -0.4223   -3.1052 C   0  0  0  0  0  0  0  0  0  0  0  0
    4.3206   -2.3960   -1.4666 H   0  0  0  0  0  0  0  0  0  0  0  0
    2.8700   -2.2064   -2.4639 H   0  0  0  0  0  0  0  0  0  0  0  0
    4.4648   -2.2394   -3.2270 H   0  0  0  0  0  0  0  0  0  0  0  0
    3.4992    0.0837   -3.0581 H   0  0  0  0  0  0  0  0  0  0  0  0
    5.0595   -0.0778   -2.1992 H   0  0  0  0  0  0  0  0  0  0  0  0
    3.5765    0.5027    1.4598 H   0  0  0  0  0  0  0  0  0  0  0  0
    2.9894    2.1685    1.7262 H   0  0  0  0  0  0  0  0  0  0  0  0
    1.0590    1.2364    3.0409 H   0  0  0  0  0  0  0  0  0  0  0  0
    1.7416   -0.3872    2.8817 H   0  0  0  0  0  0  0  0  0  0  0  0
    2.6243    0.8589    3.7779 H   0  0  0  0  0  0  0  0  0  0  0  0
   -0.3730   -2.9981    0.4071 H   0  0  0  0  0  0  0  0  0  0  0  0
   -0.4426   -1.6237   -0.7563 H   0  0  0  0  0  0  0  0  0  0  0  0
   -5.0294    0.2531    1.6200 H   0  0  0  0  0  0  0  0  0  0  0  0
   -3.8708   -1.0424    1.2087 H   0  0  0  0  0  0  0  0  0  0  0  0
   -3.9990    0.4344    3.8875 H   0  0  0  0  0  0  0  0  0  0  0  0
   -4.6294   -1.1956    3.5948 H   0  0  0  0  0  0  0  0  0  0  0  0
   -2.8880   -0.8832    3.4948 H   0  0  0  0  0  0  0  0  0  0  0  0
   -3.8480    0.8832   -1.7219 H   0  0  0  0  0  0  0  0  0  0  0  0
   -2.1953    1.4138   -2.1209 H   0  0  0  0  0  0  0  0  0  0  0  0
   -1.7688   -0.6929   -3.3283 H   0  0  0  0  0  0  0  0  0  0  0  0
   -3.3633   -1.3181   -2.8660 H   0  0  0  0  0  0  0  0  0  0  0  0
   -3.2327    0.0608   -3.9737 H   0  0  0  0  0  0  0  0  0  0  0  0
  1  2  1  0  0  0  0
  2  3  1  0  0  0  0
  3  4  2  0  0  0  0
  4  5  2  0  0  0  0
  4  6  2  0  0  0  0
  6  7  1  0  0  0  0
  7  8  1  0  0  0  0
  4  9  1  0  0  0  0
  9 10  1  0  0  0  0
 10 11  1  0  0  0  0
 11 12  1  0  0  0  0
 12 13  2  0  0  0  0
 12 14  2  0  0  0  0
 14 15  1  0  0  0  0
 15 16  1  0  0  0  0
 12 17  1  0  0  0  0
 17 18  1  0  0  0  0
 18 19  1  0  0  0  0
  1 20  1  0  0  0  0
  1 21  1  0  0  0  0
  1 22  1  0  0  0  0
  2 23  1  0  0  0  0
  2 24  1  0  0  0  0
  7 25  1  0  0  0  0
  7 26  1  0  0  0  0
  8 27  1  0  0  0  0
  8 28  1  0  0  0  0
  8 29  1  0  0  0  0
 10 30  1  0  0  0  0
 10 31  1  0  0  0  0
 15 32  1  0  0  0  0
 15 33  1  0  0  0  0
 16 34  1  0  0  0  0
 16 35  1  0  0  0  0
 16 36  1  0  0  0  0
 18 37  1  0  0  0  0
 18 38  1  0  0  0  0
 19 39  1  0  0  0  0
 19 40  1  0  0  0  0
 19 41  1  0  0  0  0
M  END
