 xtb: 6.7.1 (edcfbbe)
          04092505203D

 41 40  0     0  0            999 V2000
    4.1419    1.5892    0.6063 C   0  0  0  0  0  0  0  0  0  0  0  0
    2.6681    1.8554    0.8167 C   0  0  0  0  0  0  0  0  0  0  0  0
    1.9426    0.6860    1.2769 O   0  0  0  0  0  0  0  0  0  0  0  0
    1.8921   -0.7253    0.5893 P   0  0  0  0  0  0  0  0  0  0  0  0
    0.3669   -1.7804    1.2243 S   0  0  0  0  0  0  0  0  0  0  0  0
    3.3107   -1.3445    0.9398 O   0  0  0  0  0  0  0  0  0  0  0  0
    3.6369   -2.7100    0.6175 C   0  0  0  0  0  0  0  0  0  0  0  0
    4.8536   -3.1011    1.4317 C   0  0  0  0  0  0  0  0  0  0  0  0
    2.0167   -0.4368   -1.5232 S   0  0  0  0  0  0  0  0  0  0  0  0
    0.2548   -0.2785   -1.8579 C   0  0  0  0  0  0  0  0  0  0  0  0
   -0.4611    1.1274   -0.9448 S   0  0  0  0  0  0  0  0  0  0  0  0
   -2.4381    0.3709   -0.6716 P   0  0  0  0  0  0  0  0  0  0  0  0
   -2.6831   -1.5505   -0.9310 S   0  0  0  0  0  0  0  0  0  0  0  0
   -3.3097    1.1885   -1.6969 O   0  0  0  0  0  0  0  0  0  0  0  0
   -3.3322    2.6366   -1.7707 C   0  0  0  0  0  0  0  0  0  0  0  0
   -4.4819    3.2039   -0.9641 C   0  0  0  0  0  0  0  0  0  0  0  0
   -2.9105    0.9677    0.7237 O   0  0  0  0  0  0  0  0  0  0  0  0
   -2.5126    0.4337    2.0000 C   0  0  0  0  0  0  0  0  0  0  0  0
   -1.4215    1.2821    2.6227 C   0  0  0  0  0  0  0  0  0  0  0  0
    4.5787    1.1644    1.5061 H   0  0  0  0  0  0  0  0  0  0  0  0
    4.2880    0.8952   -0.2189 H   0  0  0  0  0  0  0  0  0  0  0  0
    4.6389    2.5255    0.3719 H   0  0  0  0  0  0  0  0  0  0  0  0
    2.1911    2.2038   -0.1040 H   0  0  0  0  0  0  0  0  0  0  0  0
    2.4984    2.5782    1.6159 H   0  0  0  0  0  0  0  0  0  0  0  0
    2.7745   -3.3426    0.8548 H   0  0  0  0  0  0  0  0  0  0  0  0
    3.8378   -2.7692   -0.4558 H   0  0  0  0  0  0  0  0  0  0  0  0
    5.1210   -4.1272    1.2018 H   0  0  0  0  0  0  0  0  0  0  0  0
    5.6871   -2.4485    1.1901 H   0  0  0  0  0  0  0  0  0  0  0  0
    4.6344   -3.0167    2.4923 H   0  0  0  0  0  0  0  0  0  0  0  0
   -0.2710   -1.1872   -1.5496 H   0  0  0  0  0  0  0  0  0  0  0  0
    0.1562   -0.1084   -2.9273 H   0  0  0  0  0  0  0  0  0  0  0  0
   -2.3706    3.0229   -1.4205 H   0  0  0  0  0  0  0  0  0  0  0  0
   -3.4509    2.8486   -2.8348 H   0  0  0  0  0  0  0  0  0  0  0  0
   -4.3533    2.9766    0.0905 H   0  0  0  0  0  0  0  0  0  0  0  0
   -4.5116    4.2806   -1.0991 H   0  0  0  0  0  0  0  0  0  0  0  0
   -5.4205    2.7733   -1.3019 H   0  0  0  0  0  0  0  0  0  0  0  0
   -3.4214    0.4525    2.6046 H   0  0  0  0  0  0  0  0  0  0  0  0
   -2.1856   -0.6037    1.8749 H   0  0  0  0  0  0  0  0  0  0  0  0
   -1.2336    0.9264    3.6307 H   0  0  0  0  0  0  0  0  0  0  0  0
   -0.4994    1.2009    2.0512 H   0  0  0  0  0  0  0  0  0  0  0  0
   -1.7295    2.3231    2.6560 H   0  0  0  0  0  0  0  0  0  0  0  0
  1  2  1  0  0  0  0
  2  3  1  0  0  0  0
  3  4  2  0  0  0  0
  4  5  2  0  0  0  0
  4  6  2  0  0  0  0
  6  7  1  0  0  0  0
  7  8  1  0  0  0  0
  4  9  1  0  0  0  0
  9 10  1  0  0  0  0
 10 11  1  0  0  0  0
 11 12  1  0  0  0  0
 12 13  2  0  0  0  0
 12 14  2  0  0  0  0
 14 15  1  0  0  0  0
 15 16  1  0  0  0  0
 12 17  2  0  0  0  0
 17 18  1  0  0  0  0
 18 19  1  0  0  0  0
  1 20  1  0  0  0  0
  1 21  1  0  0  0  0
  1 22  1  0  0  0  0
  2 23  1  0  0  0  0
  2 24  1  0  0  0  0
  7 25  1  0  0  0  0
  7 26  1  0  0  0  0
  8 27  1  0  0  0  0
  8 28  1  0  0  0  0
  8 29  1  0  0  0  0
 10 30  1  0  0  0  0
 10 31  1  0  0  0  0
 15 32  1  0  0  0  0
 15 33  1  0  0  0  0
 16 34  1  0  0  0  0
 16 35  1  0  0  0  0
 16 36  1  0  0  0  0
 18 37  1  0  0  0  0
 18 38  1  0  0  0  0
 19 39  1  0  0  0  0
 19 40  1  0  0  0  0
 19 41  1  0  0  0  0
M  END
