 xtb: 6.7.1 (edcfbbe)
          04092505213D

 41 40  0     0  0            999 V2000
    1.6297    0.1031   -3.2064 C   0  0  0  0  0  0  0  0  0  0  0  0
    2.4117   -0.9499   -2.4461 C   0  0  0  0  0  0  0  0  0  0  0  0
    3.1455   -0.3718   -1.3500 O   0  0  0  0  0  0  0  0  0  0  0  0
    2.5204   -0.0713    0.0720 P   0  0  0  0  0  0  0  0  0  0  0  0
    1.2727    1.4479    0.2368 S   0  0  0  0  0  0  0  0  0  0  0  0
    3.9076    0.1429    0.7981 O   0  0  0  0  0  0  0  0  0  0  0  0
    4.0133    0.8428    2.0485 C   0  0  0  0  0  0  0  0  0  0  0  0
    3.3617    0.0800    3.1853 C   0  0  0  0  0  0  0  0  0  0  0  0
    1.8114   -1.9671    0.7295 S   0  0  0  0  0  0  0  0  0  0  0  0
    0.0621   -1.6082    1.0116 C   0  0  0  0  0  0  0  0  0  0  0  0
   -0.8558   -1.2524   -0.5223 S   0  0  0  0  0  0  0  0  0  0  0  0
   -2.0335    0.4088    0.1372 P   0  0  0  0  0  0  0  0  0  0  0  0
   -1.8639    0.8936    2.0229 S   0  0  0  0  0  0  0  0  0  0  0  0
   -3.5006   -0.0503   -0.2855 O   0  0  0  0  0  0  0  0  0  0  0  0
   -4.1732   -1.1167    0.4113 C   0  0  0  0  0  0  0  0  0  0  0  0
   -5.6307   -1.0973   -0.0029 C   0  0  0  0  0  0  0  0  0  0  0  0
   -1.7776    1.5978   -0.8552 O   0  0  0  0  0  0  0  0  0  0  0  0
   -1.9350    1.4843   -2.2935 C   0  0  0  0  0  0  0  0  0  0  0  0
   -3.2916    1.9978   -2.7288 C   0  0  0  0  0  0  0  0  0  0  0  0
    2.2995    0.8749   -3.5756 H   0  0  0  0  0  0  0  0  0  0  0  0
    1.1154   -0.3622   -4.0408 H   0  0  0  0  0  0  0  0  0  0  0  0
    0.8967    0.5669   -2.5496 H   0  0  0  0  0  0  0  0  0  0  0  0
    3.1837   -1.4019   -3.0713 H   0  0  0  0  0  0  0  0  0  0  0  0
    1.7445   -1.7312   -2.0659 H   0  0  0  0  0  0  0  0  0  0  0  0
    5.0886    0.9482    2.1987 H   0  0  0  0  0  0  0  0  0  0  0  0
    3.5558    1.8315    1.9372 H   0  0  0  0  0  0  0  0  0  0  0  0
    3.5887    0.5712    4.1261 H   0  0  0  0  0  0  0  0  0  0  0  0
    2.2797    0.0659    3.0531 H   0  0  0  0  0  0  0  0  0  0  0  0
    3.7287   -0.9429    3.2127 H   0  0  0  0  0  0  0  0  0  0  0  0
   -0.0528   -0.7486    1.6773 H   0  0  0  0  0  0  0  0  0  0  0  0
   -0.3474   -2.5091    1.4614 H   0  0  0  0  0  0  0  0  0  0  0  0
   -3.6934   -2.0606    0.1365 H   0  0  0  0  0  0  0  0  0  0  0  0
   -4.0587   -0.9543    1.4882 H   0  0  0  0  0  0  0  0  0  0  0  0
   -5.7153   -1.2432   -1.0758 H   0  0  0  0  0  0  0  0  0  0  0  0
   -6.1565   -1.8954    0.5106 H   0  0  0  0  0  0  0  0  0  0  0  0
   -6.0805   -0.1444    0.2613 H   0  0  0  0  0  0  0  0  0  0  0  0
   -1.1285    2.0971   -2.7017 H   0  0  0  0  0  0  0  0  0  0  0  0
   -1.7929    0.4395   -2.5845 H   0  0  0  0  0  0  0  0  0  0  0  0
   -3.4260    3.0220   -2.3919 H   0  0  0  0  0  0  0  0  0  0  0  0
   -3.3494    1.9651   -3.8123 H   0  0  0  0  0  0  0  0  0  0  0  0
   -4.0813    1.3832   -2.3057 H   0  0  0  0  0  0  0  0  0  0  0  0
  1  2  1  0  0  0  0
  2  3  1  0  0  0  0
  3  4  2  0  0  0  0
  4  5  2  0  0  0  0
  4  6  2  0  0  0  0
  6  7  1  0  0  0  0
  7  8  1  0  0  0  0
  4  9  1  0  0  0  0
  9 10  1  0  0  0  0
 10 11  1  0  0  0  0
 11 12  1  0  0  0  0
 12 13  2  0  0  0  0
 12 14  2  0  0  0  0
 14 15  1  0  0  0  0
 15 16  1  0  0  0  0
 12 17  2  0  0  0  0
 17 18  1  0  0  0  0
 18 19  1  0  0  0  0
  1 20  1  0  0  0  0
  1 21  1  0  0  0  0
  1 22  1  0  0  0  0
  2 23  1  0  0  0  0
  2 24  1  0  0  0  0
  7 25  1  0  0  0  0
  7 26  1  0  0  0  0
  8 27  1  0  0  0  0
  8 28  1  0  0  0  0
  8 29  1  0  0  0  0
 10 30  1  0  0  0  0
 10 31  1  0  0  0  0
 15 32  1  0  0  0  0
 15 33  1  0  0  0  0
 16 34  1  0  0  0  0
 16 35  1  0  0  0  0
 16 36  1  0  0  0  0
 18 37  1  0  0  0  0
 18 38  1  0  0  0  0
 19 39  1  0  0  0  0
 19 40  1  0  0  0  0
 19 41  1  0  0  0  0
M  END
