 xtb: 6.7.1 (edcfbbe)
          04092505213D

 41 40  0     0  0            999 V2000
    2.6347   -0.4755   -2.9626 C   0  0  0  0  0  0  0  0  0  0  0  0
    3.2058    0.4324   -1.8913 C   0  0  0  0  0  0  0  0  0  0  0  0
    2.1906    0.7718   -0.9096 O   0  0  0  0  0  0  0  0  0  0  0  0
    2.0364    0.0972    0.4990 P   0  0  0  0  0  0  0  0  0  0  0  0
    0.7060    1.0158    1.6026 S   0  0  0  0  0  0  0  0  0  0  0  0
    3.5151    0.1562    1.0741 O   0  0  0  0  0  0  0  0  0  0  0  0
    3.8197   -0.2782    2.4160 C   0  0  0  0  0  0  0  0  0  0  0  0
    5.1558    0.3201    2.8062 C   0  0  0  0  0  0  0  0  0  0  0  0
    1.7990   -2.0033    0.2205 S   0  0  0  0  0  0  0  0  0  0  0  0
    0.1518   -2.0568   -0.5267 C   0  0  0  0  0  0  0  0  0  0  0  0
   -1.1955   -1.6816    0.6510 S   0  0  0  0  0  0  0  0  0  0  0  0
   -2.0962   -0.1032   -0.4168 P   0  0  0  0  0  0  0  0  0  0  0  0
   -1.0045    0.9157   -1.6938 S   0  0  0  0  0  0  0  0  0  0  0  0
   -2.8947    0.7331    0.6660 O   0  0  0  0  0  0  0  0  0  0  0  0
   -2.4730    1.9718    1.2609 C   0  0  0  0  0  0  0  0  0  0  0  0
   -3.7063    2.8119    1.5240 C   0  0  0  0  0  0  0  0  0  0  0  0
   -3.2496   -0.9553   -1.0928 O   0  0  0  0  0  0  0  0  0  0  0  0
   -3.9936   -0.4939   -2.2390 C   0  0  0  0  0  0  0  0  0  0  0  0
   -4.8472    0.7148   -1.9183 C   0  0  0  0  0  0  0  0  0  0  0  0
    2.4510   -1.4723   -2.5694 H   0  0  0  0  0  0  0  0  0  0  0  0
    1.7010   -0.0596   -3.3352 H   0  0  0  0  0  0  0  0  0  0  0  0
    3.3440   -0.5450   -3.7811 H   0  0  0  0  0  0  0  0  0  0  0  0
    3.4973    1.3977   -2.3078 H   0  0  0  0  0  0  0  0  0  0  0  0
    4.0551   -0.0254   -1.3820 H   0  0  0  0  0  0  0  0  0  0  0  0
    3.0184    0.0594    3.0816 H   0  0  0  0  0  0  0  0  0  0  0  0
    3.8522   -1.3707    2.4182 H   0  0  0  0  0  0  0  0  0  0  0  0
    5.1002    1.4048    2.7803 H   0  0  0  0  0  0  0  0  0  0  0  0
    5.4089   -0.0021    3.8109 H   0  0  0  0  0  0  0  0  0  0  0  0
    5.9270   -0.0103    2.1167 H   0  0  0  0  0  0  0  0  0  0  0  0
    0.0226   -3.0767   -0.8783 H   0  0  0  0  0  0  0  0  0  0  0  0
    0.1012   -1.3378   -1.3482 H   0  0  0  0  0  0  0  0  0  0  0  0
   -1.9399    1.7390    2.1863 H   0  0  0  0  0  0  0  0  0  0  0  0
   -1.7770    2.4751    0.5810 H   0  0  0  0  0  0  0  0  0  0  0  0
   -4.2013    3.0630    0.5898 H   0  0  0  0  0  0  0  0  0  0  0  0
   -4.3977    2.2608    2.1547 H   0  0  0  0  0  0  0  0  0  0  0  0
   -3.4079    3.7250    2.0283 H   0  0  0  0  0  0  0  0  0  0  0  0
   -3.2827   -0.2617   -3.0383 H   0  0  0  0  0  0  0  0  0  0  0  0
   -4.5998   -1.3571   -2.5164 H   0  0  0  0  0  0  0  0  0  0  0  0
   -4.2079    1.5703   -1.7029 H   0  0  0  0  0  0  0  0  0  0  0  0
   -5.4742    0.9504   -2.7726 H   0  0  0  0  0  0  0  0  0  0  0  0
   -5.4723    0.5142   -1.0520 H   0  0  0  0  0  0  0  0  0  0  0  0
  1  2  1  0  0  0  0
  2  3  1  0  0  0  0
  3  4  2  0  0  0  0
  4  5  2  0  0  0  0
  4  6  2  0  0  0  0
  6  7  1  0  0  0  0
  7  8  1  0  0  0  0
  4  9  1  0  0  0  0
  9 10  1  0  0  0  0
 10 11  1  0  0  0  0
 11 12  1  0  0  0  0
 12 13  2  0  0  0  0
 12 14  2  0  0  0  0
 14 15  1  0  0  0  0
 15 16  1  0  0  0  0
 12 17  2  0  0  0  0
 17 18  1  0  0  0  0
 18 19  1  0  0  0  0
  1 20  1  0  0  0  0
  1 21  1  0  0  0  0
  1 22  1  0  0  0  0
  2 23  1  0  0  0  0
  2 24  1  0  0  0  0
  7 25  1  0  0  0  0
  7 26  1  0  0  0  0
  8 27  1  0  0  0  0
  8 28  1  0  0  0  0
  8 29  1  0  0  0  0
 10 30  1  0  0  0  0
 10 31  1  0  0  0  0
 15 32  1  0  0  0  0
 15 33  1  0  0  0  0
 16 34  1  0  0  0  0
 16 35  1  0  0  0  0
 16 36  1  0  0  0  0
 18 37  1  0  0  0  0
 18 38  1  0  0  0  0
 19 39  1  0  0  0  0
 19 40  1  0  0  0  0
 19 41  1  0  0  0  0
M  END
