 xtb: 6.7.1 (edcfbbe)
          04092505203D

 41 40  0     0  0            999 V2000
    4.8705    1.2549    0.2639 C   0  0  0  0  0  0  0  0  0  0  0  0
    3.5978    1.5640   -0.4952 C   0  0  0  0  0  0  0  0  0  0  0  0
    2.8464    0.3652   -0.7818 O   0  0  0  0  0  0  0  0  0  0  0  0
    2.0958   -0.4387    0.3552 P   0  0  0  0  0  0  0  0  0  0  0  0
    1.4767    0.6012    1.9028 S   0  0  0  0  0  0  0  0  0  0  0  0
    3.1617   -1.5554    0.7448 O   0  0  0  0  0  0  0  0  0  0  0  0
    3.0260   -2.3583    1.9267 C   0  0  0  0  0  0  0  0  0  0  0  0
    1.8749   -3.3365    1.8062 C   0  0  0  0  0  0  0  0  0  0  0  0
    0.7210   -1.5117   -0.8605 S   0  0  0  0  0  0  0  0  0  0  0  0
    0.2509   -0.2088   -2.0357 C   0  0  0  0  0  0  0  0  0  0  0  0
   -0.3276    1.3109   -1.2401 S   0  0  0  0  0  0  0  0  0  0  0  0
   -2.0786    0.4784   -0.3969 P   0  0  0  0  0  0  0  0  0  0  0  0
   -3.0073   -0.8742   -1.4762 S   0  0  0  0  0  0  0  0  0  0  0  0
   -2.9096    1.7481    0.0666 O   0  0  0  0  0  0  0  0  0  0  0  0
   -3.2358    2.8872   -0.7516 C   0  0  0  0  0  0  0  0  0  0  0  0
   -3.8623    2.5050   -2.0766 C   0  0  0  0  0  0  0  0  0  0  0  0
   -1.5472   -0.0534    0.9959 O   0  0  0  0  0  0  0  0  0  0  0  0
   -2.1649   -1.1434    1.7030 C   0  0  0  0  0  0  0  0  0  0  0  0
   -3.5122   -0.7396    2.2618 C   0  0  0  0  0  0  0  0  0  0  0  0
    5.4546    2.1633    0.3729 H   0  0  0  0  0  0  0  0  0  0  0  0
    4.6255    0.8699    1.2529 H   0  0  0  0  0  0  0  0  0  0  0  0
    5.4538    0.5087   -0.2690 H   0  0  0  0  0  0  0  0  0  0  0  0
    3.8026    1.9864   -1.4798 H   0  0  0  0  0  0  0  0  0  0  0  0
    2.9594    2.2454    0.0763 H   0  0  0  0  0  0  0  0  0  0  0  0
    3.9852   -2.8700    2.0141 H   0  0  0  0  0  0  0  0  0  0  0  0
    2.8776   -1.6918    2.7835 H   0  0  0  0  0  0  0  0  0  0  0  0
    0.9357   -2.7888    1.7166 H   0  0  0  0  0  0  0  0  0  0  0  0
    1.9961   -3.9576    0.9225 H   0  0  0  0  0  0  0  0  0  0  0  0
    1.8352   -3.9651    2.6898 H   0  0  0  0  0  0  0  0  0  0  0  0
   -0.5558   -0.6341   -2.6349 H   0  0  0  0  0  0  0  0  0  0  0  0
    1.1062    0.0590   -2.6499 H   0  0  0  0  0  0  0  0  0  0  0  0
   -3.9297    3.4568   -0.1306 H   0  0  0  0  0  0  0  0  0  0  0  0
   -2.3200    3.4648   -0.9075 H   0  0  0  0  0  0  0  0  0  0  0  0
   -3.1454    1.9585   -2.6882 H   0  0  0  0  0  0  0  0  0  0  0  0
   -4.7321    1.8721   -1.9174 H   0  0  0  0  0  0  0  0  0  0  0  0
   -4.1638    3.4044   -2.6038 H   0  0  0  0  0  0  0  0  0  0  0  0
   -2.2623   -1.9935    1.0188 H   0  0  0  0  0  0  0  0  0  0  0  0
   -1.4506   -1.3804    2.4936 H   0  0  0  0  0  0  0  0  0  0  0  0
   -4.1883   -0.4978    1.4419 H   0  0  0  0  0  0  0  0  0  0  0  0
   -3.9277   -1.5610    2.8368 H   0  0  0  0  0  0  0  0  0  0  0  0
   -3.4054    0.1353    2.8977 H   0  0  0  0  0  0  0  0  0  0  0  0
  1  2  1  0  0  0  0
  2  3  1  0  0  0  0
  3  4  2  0  0  0  0
  4  5  2  0  0  0  0
  4  6  2  0  0  0  0
  6  7  1  0  0  0  0
  7  8  1  0  0  0  0
  4  9  1  0  0  0  0
  9 10  1  0  0  0  0
 10 11  1  0  0  0  0
 11 12  1  0  0  0  0
 12 13  2  0  0  0  0
 12 14  2  0  0  0  0
 14 15  1  0  0  0  0
 15 16  1  0  0  0  0
 12 17  2  0  0  0  0
 17 18  1  0  0  0  0
 18 19  1  0  0  0  0
  1 20  1  0  0  0  0
  1 21  1  0  0  0  0
  1 22  1  0  0  0  0
  2 23  1  0  0  0  0
  2 24  1  0  0  0  0
  7 25  1  0  0  0  0
  7 26  1  0  0  0  0
  8 27  1  0  0  0  0
  8 28  1  0  0  0  0
  8 29  1  0  0  0  0
 10 30  1  0  0  0  0
 10 31  1  0  0  0  0
 15 32  1  0  0  0  0
 15 33  1  0  0  0  0
 16 34  1  0  0  0  0
 16 35  1  0  0  0  0
 16 36  1  0  0  0  0
 18 37  1  0  0  0  0
 18 38  1  0  0  0  0
 19 39  1  0  0  0  0
 19 40  1  0  0  0  0
 19 41  1  0  0  0  0
M  END
