 xtb: 6.7.1 (edcfbbe)
          04092505213D

 41 40  0     0  0            999 V2000
    1.3198    1.9422   -1.8177 C   0  0  0  0  0  0  0  0  0  0  0  0
    2.2808    0.7831   -1.9832 C   0  0  0  0  0  0  0  0  0  0  0  0
    2.1429   -0.1916   -0.9388 O   0  0  0  0  0  0  0  0  0  0  0  0
    2.4445    0.1637    0.5913 P   0  0  0  0  0  0  0  0  0  0  0  0
    3.8859    1.4692    0.8253 S   0  0  0  0  0  0  0  0  0  0  0  0
    2.6563   -1.2884    1.1986 O   0  0  0  0  0  0  0  0  0  0  0  0
    3.8728   -2.0336    0.9541 C   0  0  0  0  0  0  0  0  0  0  0  0
    4.8358   -1.8732    2.1132 C   0  0  0  0  0  0  0  0  0  0  0  0
    0.5994    0.5815    1.4965 S   0  0  0  0  0  0  0  0  0  0  0  0
   -0.2022   -1.0538    1.2583 C   0  0  0  0  0  0  0  0  0  0  0  0
   -1.9903   -0.8932    1.2717 S   0  0  0  0  0  0  0  0  0  0  0  0
   -2.1932   -0.1966   -0.7379 P   0  0  0  0  0  0  0  0  0  0  0  0
   -1.0326   -1.0834   -2.0386 S   0  0  0  0  0  0  0  0  0  0  0  0
   -1.9928    1.3628   -0.7156 O   0  0  0  0  0  0  0  0  0  0  0  0
   -2.7829    2.2440    0.1273 C   0  0  0  0  0  0  0  0  0  0  0  0
   -1.8851    3.3550    0.6296 C   0  0  0  0  0  0  0  0  0  0  0  0
   -3.7547   -0.3288   -0.9899 O   0  0  0  0  0  0  0  0  0  0  0  0
   -4.3885   -1.6183   -1.1266 C   0  0  0  0  0  0  0  0  0  0  0  0
   -5.7954   -1.3870   -1.6390 C   0  0  0  0  0  0  0  0  0  0  0  0
    1.4413    2.6309   -2.6474 H   0  0  0  0  0  0  0  0  0  0  0  0
    0.2921    1.5860   -1.7970 H   0  0  0  0  0  0  0  0  0  0  0  0
    1.5313    2.4672   -0.8855 H   0  0  0  0  0  0  0  0  0  0  0  0
    3.3143    1.1435   -1.9813 H   0  0  0  0  0  0  0  0  0  0  0  0
    2.0772    0.2197   -2.8952 H   0  0  0  0  0  0  0  0  0  0  0  0
    3.5443   -3.0688    0.8461 H   0  0  0  0  0  0  0  0  0  0  0  0
    4.3215   -1.6940    0.0167 H   0  0  0  0  0  0  0  0  0  0  0  0
    5.1473   -0.8345    2.2021 H   0  0  0  0  0  0  0  0  0  0  0  0
    4.3575   -2.1759    3.0405 H   0  0  0  0  0  0  0  0  0  0  0  0
    5.7104   -2.4920    1.9395 H   0  0  0  0  0  0  0  0  0  0  0  0
    0.0725   -1.7026    2.0850 H   0  0  0  0  0  0  0  0  0  0  0  0
    0.1146   -1.4622    0.2965 H   0  0  0  0  0  0  0  0  0  0  0  0
   -3.5945    2.6282   -0.4925 H   0  0  0  0  0  0  0  0  0  0  0  0
   -3.1989    1.6628    0.9548 H   0  0  0  0  0  0  0  0  0  0  0  0
   -2.4746    4.0457    1.2236 H   0  0  0  0  0  0  0  0  0  0  0  0
   -1.0862    2.9462    1.2440 H   0  0  0  0  0  0  0  0  0  0  0  0
   -1.4442    3.8870   -0.2086 H   0  0  0  0  0  0  0  0  0  0  0  0
   -3.7997   -2.2232   -1.8235 H   0  0  0  0  0  0  0  0  0  0  0  0
   -4.3929   -2.1021   -0.1463 H   0  0  0  0  0  0  0  0  0  0  0  0
   -5.7642   -0.8908   -2.6049 H   0  0  0  0  0  0  0  0  0  0  0  0
   -6.2980   -2.3429   -1.7434 H   0  0  0  0  0  0  0  0  0  0  0  0
   -6.3467   -0.7645   -0.9406 H   0  0  0  0  0  0  0  0  0  0  0  0
  1  2  1  0  0  0  0
  2  3  1  0  0  0  0
  3  4  1  0  0  0  0
  4  5  2  0  0  0  0
  4  6  2  0  0  0  0
  6  7  1  0  0  0  0
  7  8  1  0  0  0  0
  4  9  1  0  0  0  0
  9 10  1  0  0  0  0
 10 11  1  0  0  0  0
 11 12  1  0  0  0  0
 12 13  2  0  0  0  0
 12 14  2  0  0  0  0
 14 15  1  0  0  0  0
 15 16  1  0  0  0  0
 12 17  2  0  0  0  0
 17 18  1  0  0  0  0
 18 19  1  0  0  0  0
  1 20  1  0  0  0  0
  1 21  1  0  0  0  0
  1 22  1  0  0  0  0
  2 23  1  0  0  0  0
  2 24  1  0  0  0  0
  7 25  1  0  0  0  0
  7 26  1  0  0  0  0
  8 27  1  0  0  0  0
  8 28  1  0  0  0  0
  8 29  1  0  0  0  0
 10 30  1  0  0  0  0
 10 31  1  0  0  0  0
 15 32  1  0  0  0  0
 15 33  1  0  0  0  0
 16 34  1  0  0  0  0
 16 35  1  0  0  0  0
 16 36  1  0  0  0  0
 18 37  1  0  0  0  0
 18 38  1  0  0  0  0
 19 39  1  0  0  0  0
 19 40  1  0  0  0  0
 19 41  1  0  0  0  0
M  END
