 xtb: 6.7.1 (edcfbbe)
          04092505213D

 41 40  0     0  0            999 V2000
    1.7383    3.2915    0.4803 C   0  0  0  0  0  0  0  0  0  0  0  0
    2.3293    1.9949   -0.0312 C   0  0  0  0  0  0  0  0  0  0  0  0
    2.3173    1.0539    1.0726 O   0  0  0  0  0  0  0  0  0  0  0  0
    2.5621   -0.4931    0.9153 P   0  0  0  0  0  0  0  0  0  0  0  0
    2.5095   -1.3946    2.6485 S   0  0  0  0  0  0  0  0  0  0  0  0
    3.9403   -0.5430    0.1250 O   0  0  0  0  0  0  0  0  0  0  0  0
    4.7682   -1.7196    0.0735 C   0  0  0  0  0  0  0  0  0  0  0  0
    4.0852   -2.8750   -0.6284 C   0  0  0  0  0  0  0  0  0  0  0  0
    1.1223   -1.1573   -0.5163 S   0  0  0  0  0  0  0  0  0  0  0  0
   -0.2760   -1.1274    0.6341 C   0  0  0  0  0  0  0  0  0  0  0  0
   -1.0516    0.5041    0.7730 S   0  0  0  0  0  0  0  0  0  0  0  0
   -2.4254    0.1916   -0.8400 P   0  0  0  0  0  0  0  0  0  0  0  0
   -1.6833   -0.4165   -2.5417 S   0  0  0  0  0  0  0  0  0  0  0  0
   -3.2721    1.5332   -0.8835 O   0  0  0  0  0  0  0  0  0  0  0  0
   -2.9047    2.6430   -1.7253 C   0  0  0  0  0  0  0  0  0  0  0  0
   -1.5951    3.2689   -1.2957 C   0  0  0  0  0  0  0  0  0  0  0  0
   -3.4370   -0.8663   -0.2450 O   0  0  0  0  0  0  0  0  0  0  0  0
   -4.2505   -0.6302    0.9318 C   0  0  0  0  0  0  0  0  0  0  0  0
   -5.6260   -0.1275    0.5448 C   0  0  0  0  0  0  0  0  0  0  0  0
    0.7339    3.1146    0.8553 H   0  0  0  0  0  0  0  0  0  0  0  0
    2.3479    3.6829    1.2891 H   0  0  0  0  0  0  0  0  0  0  0  0
    1.7022    4.0131   -0.3291 H   0  0  0  0  0  0  0  0  0  0  0  0
    3.3627    2.1178   -0.3603 H   0  0  0  0  0  0  0  0  0  0  0  0
    1.7405    1.5754   -0.8531 H   0  0  0  0  0  0  0  0  0  0  0  0
    5.6558   -1.3871   -0.4667 H   0  0  0  0  0  0  0  0  0  0  0  0
    5.0357   -1.9964    1.0977 H   0  0  0  0  0  0  0  0  0  0  0  0
    4.7922   -3.6892   -0.7508 H   0  0  0  0  0  0  0  0  0  0  0  0
    3.2432   -3.2265   -0.0334 H   0  0  0  0  0  0  0  0  0  0  0  0
    3.7189   -2.5644   -1.6041 H   0  0  0  0  0  0  0  0  0  0  0  0
    0.0824   -1.4077    1.6263 H   0  0  0  0  0  0  0  0  0  0  0  0
   -1.0083   -1.8430    0.2641 H   0  0  0  0  0  0  0  0  0  0  0  0
   -2.8409    2.2850   -2.7573 H   0  0  0  0  0  0  0  0  0  0  0  0
   -3.7394    3.3375   -1.6216 H   0  0  0  0  0  0  0  0  0  0  0  0
   -1.4080    4.1577   -1.8894 H   0  0  0  0  0  0  0  0  0  0  0  0
   -1.6326    3.5375   -0.2431 H   0  0  0  0  0  0  0  0  0  0  0  0
   -0.7823    2.5615   -1.4534 H   0  0  0  0  0  0  0  0  0  0  0  0
   -4.3084   -1.6040    1.4220 H   0  0  0  0  0  0  0  0  0  0  0  0
   -3.7359    0.0824    1.5822 H   0  0  0  0  0  0  0  0  0  0  0  0
   -5.5526    0.8458    0.0678 H   0  0  0  0  0  0  0  0  0  0  0  0
   -6.0951   -0.8229   -0.1459 H   0  0  0  0  0  0  0  0  0  0  0  0
   -6.2362   -0.0437    1.4387 H   0  0  0  0  0  0  0  0  0  0  0  0
  1  2  1  0  0  0  0
  2  3  1  0  0  0  0
  3  4  2  0  0  0  0
  4  5  2  0  0  0  0
  4  6  2  0  0  0  0
  6  7  1  0  0  0  0
  7  8  1  0  0  0  0
  4  9  1  0  0  0  0
  9 10  1  0  0  0  0
 10 11  1  0  0  0  0
 11 12  1  0  0  0  0
 12 13  2  0  0  0  0
 12 14  2  0  0  0  0
 14 15  1  0  0  0  0
 15 16  1  0  0  0  0
 12 17  2  0  0  0  0
 17 18  1  0  0  0  0
 18 19  1  0  0  0  0
  1 20  1  0  0  0  0
  1 21  1  0  0  0  0
  1 22  1  0  0  0  0
  2 23  1  0  0  0  0
  2 24  1  0  0  0  0
  7 25  1  0  0  0  0
  7 26  1  0  0  0  0
  8 27  1  0  0  0  0
  8 28  1  0  0  0  0
  8 29  1  0  0  0  0
 10 30  1  0  0  0  0
 10 31  1  0  0  0  0
 15 32  1  0  0  0  0
 15 33  1  0  0  0  0
 16 34  1  0  0  0  0
 16 35  1  0  0  0  0
 16 36  1  0  0  0  0
 18 37  1  0  0  0  0
 18 38  1  0  0  0  0
 19 39  1  0  0  0  0
 19 40  1  0  0  0  0
 19 41  1  0  0  0  0
M  END
