 xtb: 6.7.1 (edcfbbe)
          04092505203D

 41 40  0     0  0            999 V2000
    4.2597   -0.5848   -2.5890 C   0  0  0  0  0  0  0  0  0  0  0  0
    4.5922   -1.2394   -1.2636 C   0  0  0  0  0  0  0  0  0  0  0  0
    3.4120   -1.5827   -0.5170 O   0  0  0  0  0  0  0  0  0  0  0  0
    2.4441   -0.4854    0.1013 P   0  0  0  0  0  0  0  0  0  0  0  0
    3.3396    1.0901    0.8610 S   0  0  0  0  0  0  0  0  0  0  0  0
    1.5753   -1.3467    1.1062 O   0  0  0  0  0  0  0  0  0  0  0  0
    1.9260   -1.4870    2.4973 C   0  0  0  0  0  0  0  0  0  0  0  0
    3.1969   -2.2900    2.6787 C   0  0  0  0  0  0  0  0  0  0  0  0
    1.0028   -0.1375   -1.4027 S   0  0  0  0  0  0  0  0  0  0  0  0
    0.3259    1.3789   -0.6734 C   0  0  0  0  0  0  0  0  0  0  0  0
   -0.6485    1.0782    0.8311 S   0  0  0  0  0  0  0  0  0  0  0  0
   -2.5292    0.7204   -0.0756 P   0  0  0  0  0  0  0  0  0  0  0  0
   -2.6028    0.5092   -2.0267 S   0  0  0  0  0  0  0  0  0  0  0  0
   -3.2876    1.9826    0.5068 O   0  0  0  0  0  0  0  0  0  0  0  0
   -4.5253    2.4672   -0.0550 C   0  0  0  0  0  0  0  0  0  0  0  0
   -5.6739    1.5100    0.1860 C   0  0  0  0  0  0  0  0  0  0  0  0
   -3.1856   -0.4683    0.7535 O   0  0  0  0  0  0  0  0  0  0  0  0
   -3.0660   -1.8447    0.3591 C   0  0  0  0  0  0  0  0  0  0  0  0
   -1.6843   -2.3968    0.6445 C   0  0  0  0  0  0  0  0  0  0  0  0
    3.5593   -1.1992   -3.1492 H   0  0  0  0  0  0  0  0  0  0  0  0
    3.8086    0.3922   -2.4196 H   0  0  0  0  0  0  0  0  0  0  0  0
    5.1701   -0.4564   -3.1658 H   0  0  0  0  0  0  0  0  0  0  0  0
    5.2072   -0.5725   -0.6507 H   0  0  0  0  0  0  0  0  0  0  0  0
    5.1015   -2.1940   -1.4019 H   0  0  0  0  0  0  0  0  0  0  0  0
    2.0307   -0.4870    2.9302 H   0  0  0  0  0  0  0  0  0  0  0  0
    1.0633   -1.9896    2.9361 H   0  0  0  0  0  0  0  0  0  0  0  0
    3.1146   -3.2430    2.1627 H   0  0  0  0  0  0  0  0  0  0  0  0
    4.0433   -1.7396    2.2694 H   0  0  0  0  0  0  0  0  0  0  0  0
    3.3672   -2.4625    3.7368 H   0  0  0  0  0  0  0  0  0  0  0  0
   -0.3017    1.8356   -1.4362 H   0  0  0  0  0  0  0  0  0  0  0  0
    1.1486    2.0332   -0.3858 H   0  0  0  0  0  0  0  0  0  0  0  0
   -4.6813    3.4223    0.4482 H   0  0  0  0  0  0  0  0  0  0  0  0
   -4.3769    2.6299   -1.1273 H   0  0  0  0  0  0  0  0  0  0  0  0
   -5.7462    1.2699    1.2434 H   0  0  0  0  0  0  0  0  0  0  0  0
   -6.5997    1.9698   -0.1455 H   0  0  0  0  0  0  0  0  0  0  0  0
   -5.5152    0.5900   -0.3748 H   0  0  0  0  0  0  0  0  0  0  0  0
   -3.8300   -2.3556    0.9469 H   0  0  0  0  0  0  0  0  0  0  0  0
   -3.3003   -1.9235   -0.7078 H   0  0  0  0  0  0  0  0  0  0  0  0
   -1.4153   -2.2146    1.6820 H   0  0  0  0  0  0  0  0  0  0  0  0
   -1.6738   -3.4645    0.4507 H   0  0  0  0  0  0  0  0  0  0  0  0
   -0.9440   -1.9190    0.0037 H   0  0  0  0  0  0  0  0  0  0  0  0
  1  2  1  0  0  0  0
  2  3  1  0  0  0  0
  3  4  2  0  0  0  0
  4  5  2  0  0  0  0
  4  6  2  0  0  0  0
  6  7  1  0  0  0  0
  7  8  1  0  0  0  0
  4  9  1  0  0  0  0
  9 10  1  0  0  0  0
 10 11  1  0  0  0  0
 11 12  1  0  0  0  0
 12 13  2  0  0  0  0
 12 14  2  0  0  0  0
 14 15  1  0  0  0  0
 15 16  1  0  0  0  0
 12 17  2  0  0  0  0
 17 18  1  0  0  0  0
 18 19  1  0  0  0  0
  1 20  1  0  0  0  0
  1 21  1  0  0  0  0
  1 22  1  0  0  0  0
  2 23  1  0  0  0  0
  2 24  1  0  0  0  0
  7 25  1  0  0  0  0
  7 26  1  0  0  0  0
  8 27  1  0  0  0  0
  8 28  1  0  0  0  0
  8 29  1  0  0  0  0
 10 30  1  0  0  0  0
 10 31  1  0  0  0  0
 15 32  1  0  0  0  0
 15 33  1  0  0  0  0
 16 34  1  0  0  0  0
 16 35  1  0  0  0  0
 16 36  1  0  0  0  0
 18 37  1  0  0  0  0
 18 38  1  0  0  0  0
 19 39  1  0  0  0  0
 19 40  1  0  0  0  0
 19 41  1  0  0  0  0
M  END
