 xtb: 6.7.1 (edcfbbe)
          04032520443D

 10  9  0     0  0            999 V2000
    1.5022    0.3015   -0.4911 C   0  0  0  0  0  0  0  0  0  0  0  0
    0.8281   -0.2222    0.5154 C   0  0  0  0  0  0  0  0  0  0  0  0
   -0.6647   -0.3833    0.5604 C   0  0  0  0  0  0  0  0  0  0  0  0
   -1.3621    0.2177   -0.5071 O   0  0  0  0  0  0  0  0  0  0  0  0
    2.5738    0.3902   -0.4725 H   0  0  0  0  0  0  0  0  0  0  0  0
    1.0052    0.6468   -1.3825 H   0  0  0  0  0  0  0  0  0  0  0  0
    1.3322   -0.5863    1.3995 H   0  0  0  0  0  0  0  0  0  0  0  0
   -1.0385   -0.0031    1.5233 H   0  0  0  0  0  0  0  0  0  0  0  0
   -0.9119   -1.4492    0.5090 H   0  0  0  0  0  0  0  0  0  0  0  0
   -1.1884    1.1691   -0.4932 H   0  0  0  0  0  0  0  0  0  0  0  0
  1  2  2  0  0  0  0
  2  3  1  0  0  0  0
  3  4  1  0  0  0  0
  1  5  1  0  0  0  0
  1  6  1  0  0  0  0
  2  7  1  0  0  0  0
  3  8  1  0  0  0  0
  3  9  1  0  0  0  0
  4 10  1  0  0  0  0
M  END
