 xtb: 6.7.1 (edcfbbe)
          04092505213D

 41 40  0     0  0            999 V2000
    2.6635    2.2340    2.2683 C   0  0  0  0  0  0  0  0  0  0  0  0
    3.9254    1.6743    1.6422 C   0  0  0  0  0  0  0  0  0  0  0  0
    3.6973    1.1514    0.3186 O   0  0  0  0  0  0  0  0  0  0  0  0
    2.8492   -0.1586    0.0751 P   0  0  0  0  0  0  0  0  0  0  0  0
    3.0930   -1.6199    1.3654 S   0  0  0  0  0  0  0  0  0  0  0  0
    3.4039   -0.4350   -1.3839 O   0  0  0  0  0  0  0  0  0  0  0  0
    3.1908   -1.6786   -2.0731 C   0  0  0  0  0  0  0  0  0  0  0  0
    1.9045   -1.6671   -2.8776 C   0  0  0  0  0  0  0  0  0  0  0  0
    0.8506    0.5274   -0.1748 S   0  0  0  0  0  0  0  0  0  0  0  0
   -0.0322   -0.8088    0.7059 C   0  0  0  0  0  0  0  0  0  0  0  0
   -1.5355   -0.1822    1.4581 S   0  0  0  0  0  0  0  0  0  0  0  0
   -2.6038    0.0482   -0.3796 P   0  0  0  0  0  0  0  0  0  0  0  0
   -2.1840   -1.2566   -1.7747 S   0  0  0  0  0  0  0  0  0  0  0  0
   -2.3127    1.5001   -0.9136 O   0  0  0  0  0  0  0  0  0  0  0  0
   -2.4946    2.6954   -0.1110 C   0  0  0  0  0  0  0  0  0  0  0  0
   -1.3436    3.6387   -0.3933 C   0  0  0  0  0  0  0  0  0  0  0  0
   -4.1131    0.1904    0.0994 O   0  0  0  0  0  0  0  0  0  0  0  0
   -4.7930   -0.7007    1.0042 C   0  0  0  0  0  0  0  0  0  0  0  0
   -4.7270   -2.1475    0.5621 C   0  0  0  0  0  0  0  0  0  0  0  0
    1.9572    1.4312    2.4760 H   0  0  0  0  0  0  0  0  0  0  0  0
    2.9170    2.7267    3.2016 H   0  0  0  0  0  0  0  0  0  0  0  0
    2.1969    2.9511    1.5977 H   0  0  0  0  0  0  0  0  0  0  0  0
    4.3437    0.8758    2.2633 H   0  0  0  0  0  0  0  0  0  0  0  0
    4.6747    2.4517    1.4865 H   0  0  0  0  0  0  0  0  0  0  0  0
    4.0583   -1.7726   -2.7289 H   0  0  0  0  0  0  0  0  0  0  0  0
    3.1966   -2.4964   -1.3436 H   0  0  0  0  0  0  0  0  0  0  0  0
    1.8593   -2.5613   -3.4910 H   0  0  0  0  0  0  0  0  0  0  0  0
    1.0287   -1.6498   -2.2315 H   0  0  0  0  0  0  0  0  0  0  0  0
    1.8746   -0.7914   -3.5205 H   0  0  0  0  0  0  0  0  0  0  0  0
    0.6070   -1.2043    1.4962 H   0  0  0  0  0  0  0  0  0  0  0  0
   -0.3047   -1.5879   -0.0093 H   0  0  0  0  0  0  0  0  0  0  0  0
   -3.4530    3.1287   -0.4017 H   0  0  0  0  0  0  0  0  0  0  0  0
   -2.5273    2.4132    0.9453 H   0  0  0  0  0  0  0  0  0  0  0  0
   -1.4734    4.5454    0.1886 H   0  0  0  0  0  0  0  0  0  0  0  0
   -0.4017    3.1665   -0.1249 H   0  0  0  0  0  0  0  0  0  0  0  0
   -1.3161    3.8868   -1.4502 H   0  0  0  0  0  0  0  0  0  0  0  0
   -4.3514   -0.5790    1.9970 H   0  0  0  0  0  0  0  0  0  0  0  0
   -5.8193   -0.3296    1.0047 H   0  0  0  0  0  0  0  0  0  0  0  0
   -5.1000   -2.2516   -0.4541 H   0  0  0  0  0  0  0  0  0  0  0  0
   -3.6975   -2.5022    0.5874 H   0  0  0  0  0  0  0  0  0  0  0  0
   -5.3271   -2.7570    1.2299 H   0  0  0  0  0  0  0  0  0  0  0  0
  1  2  1  0  0  0  0
  2  3  1  0  0  0  0
  3  4  2  0  0  0  0
  4  5  2  0  0  0  0
  4  6  2  0  0  0  0
  6  7  1  0  0  0  0
  7  8  1  0  0  0  0
  4  9  1  0  0  0  0
  9 10  1  0  0  0  0
 10 11  1  0  0  0  0
 11 12  1  0  0  0  0
 12 13  2  0  0  0  0
 12 14  2  0  0  0  0
 14 15  1  0  0  0  0
 15 16  1  0  0  0  0
 12 17  2  0  0  0  0
 17 18  1  0  0  0  0
 18 19  1  0  0  0  0
  1 20  1  0  0  0  0
  1 21  1  0  0  0  0
  1 22  1  0  0  0  0
  2 23  1  0  0  0  0
  2 24  1  0  0  0  0
  7 25  1  0  0  0  0
  7 26  1  0  0  0  0
  8 27  1  0  0  0  0
  8 28  1  0  0  0  0
  8 29  1  0  0  0  0
 10 30  1  0  0  0  0
 10 31  1  0  0  0  0
 15 32  1  0  0  0  0
 15 33  1  0  0  0  0
 16 34  1  0  0  0  0
 16 35  1  0  0  0  0
 16 36  1  0  0  0  0
 18 37  1  0  0  0  0
 18 38  1  0  0  0  0
 19 39  1  0  0  0  0
 19 40  1  0  0  0  0
 19 41  1  0  0  0  0
M  END
