 xtb: 6.7.1 (edcfbbe)
          04092505213D

 41 40  0     0  0            999 V2000
    2.0295    1.1015   -1.9492 C   0  0  0  0  0  0  0  0  0  0  0  0
    3.3689    0.6739   -1.3861 C   0  0  0  0  0  0  0  0  0  0  0  0
    3.2552   -0.4384   -0.4887 O   0  0  0  0  0  0  0  0  0  0  0  0
    2.5262   -0.3537    0.9259 P   0  0  0  0  0  0  0  0  0  0  0  0
    2.7226    1.3557    1.8561 S   0  0  0  0  0  0  0  0  0  0  0  0
    3.2259   -1.5176    1.7287 O   0  0  0  0  0  0  0  0  0  0  0  0
    2.9876   -2.9385    1.5892 C   0  0  0  0  0  0  0  0  0  0  0  0
    3.1285   -3.4213    0.1622 C   0  0  0  0  0  0  0  0  0  0  0  0
    0.5348   -1.0585    0.6196 S   0  0  0  0  0  0  0  0  0  0  0  0
   -0.4037    0.2430    1.4581 C   0  0  0  0  0  0  0  0  0  0  0  0
   -0.9248    1.6147    0.3881 S   0  0  0  0  0  0  0  0  0  0  0  0
   -2.1496    0.5565   -0.9889 P   0  0  0  0  0  0  0  0  0  0  0  0
   -1.3532   -0.5555   -2.3839 S   0  0  0  0  0  0  0  0  0  0  0  0
   -2.9600    1.7281   -1.6777 O   0  0  0  0  0  0  0  0  0  0  0  0
   -3.4845    2.9207   -1.0502 C   0  0  0  0  0  0  0  0  0  0  0  0
   -4.4965    2.6118    0.0326 C   0  0  0  0  0  0  0  0  0  0  0  0
   -3.1618   -0.2142   -0.0211 O   0  0  0  0  0  0  0  0  0  0  0  0
   -3.5294   -1.5993   -0.1674 C   0  0  0  0  0  0  0  0  0  0  0  0
   -2.8552   -2.4566    0.8850 C   0  0  0  0  0  0  0  0  0  0  0  0
    1.4183    1.5425   -1.1617 H   0  0  0  0  0  0  0  0  0  0  0  0
    2.1820    1.8470   -2.7229 H   0  0  0  0  0  0  0  0  0  0  0  0
    1.4987    0.2520   -2.3754 H   0  0  0  0  0  0  0  0  0  0  0  0
    3.8405    1.5052   -0.8520 H   0  0  0  0  0  0  0  0  0  0  0  0
    4.0343    0.3099   -2.1702 H   0  0  0  0  0  0  0  0  0  0  0  0
    3.7418   -3.3809    2.2418 H   0  0  0  0  0  0  0  0  0  0  0  0
    1.9884   -3.1549    1.9757 H   0  0  0  0  0  0  0  0  0  0  0  0
    2.3563   -2.9771   -0.4647 H   0  0  0  0  0  0  0  0  0  0  0  0
    4.1022   -3.1476   -0.2355 H   0  0  0  0  0  0  0  0  0  0  0  0
    3.0202   -4.5013    0.1394 H   0  0  0  0  0  0  0  0  0  0  0  0
    0.2240    0.7015    2.2237 H   0  0  0  0  0  0  0  0  0  0  0  0
   -1.2843   -0.2255    1.8886 H   0  0  0  0  0  0  0  0  0  0  0  0
   -2.6462    3.4972   -0.6511 H   0  0  0  0  0  0  0  0  0  0  0  0
   -3.9382    3.4610   -1.8829 H   0  0  0  0  0  0  0  0  0  0  0  0
   -4.0191    2.0858    0.8563 H   0  0  0  0  0  0  0  0  0  0  0  0
   -4.9146    3.5430    0.4021 H   0  0  0  0  0  0  0  0  0  0  0  0
   -5.2962    1.9927   -0.3656 H   0  0  0  0  0  0  0  0  0  0  0  0
   -4.6151   -1.6152   -0.0564 H   0  0  0  0  0  0  0  0  0  0  0  0
   -3.2566   -1.9352   -1.1728 H   0  0  0  0  0  0  0  0  0  0  0  0
   -3.0888   -2.0894    1.8807 H   0  0  0  0  0  0  0  0  0  0  0  0
   -3.2153   -3.4759    0.7902 H   0  0  0  0  0  0  0  0  0  0  0  0
   -1.7762   -2.4511    0.7391 H   0  0  0  0  0  0  0  0  0  0  0  0
  1  2  1  0  0  0  0
  2  3  1  0  0  0  0
  3  4  2  0  0  0  0
  4  5  2  0  0  0  0
  4  6  2  0  0  0  0
  6  7  1  0  0  0  0
  7  8  1  0  0  0  0
  4  9  1  0  0  0  0
  9 10  1  0  0  0  0
 10 11  1  0  0  0  0
 11 12  1  0  0  0  0
 12 13  2  0  0  0  0
 12 14  2  0  0  0  0
 14 15  1  0  0  0  0
 15 16  1  0  0  0  0
 12 17  2  0  0  0  0
 17 18  1  0  0  0  0
 18 19  1  0  0  0  0
  1 20  1  0  0  0  0
  1 21  1  0  0  0  0
  1 22  1  0  0  0  0
  2 23  1  0  0  0  0
  2 24  1  0  0  0  0
  7 25  1  0  0  0  0
  7 26  1  0  0  0  0
  8 27  1  0  0  0  0
  8 28  1  0  0  0  0
  8 29  1  0  0  0  0
 10 30  1  0  0  0  0
 10 31  1  0  0  0  0
 15 32  1  0  0  0  0
 15 33  1  0  0  0  0
 16 34  1  0  0  0  0
 16 35  1  0  0  0  0
 16 36  1  0  0  0  0
 18 37  1  0  0  0  0
 18 38  1  0  0  0  0
 19 39  1  0  0  0  0
 19 40  1  0  0  0  0
 19 41  1  0  0  0  0
M  END
