 xtb: 6.7.1 (edcfbbe)
          04092507313D

 38 37  0     0  0            999 V2000
    5.2700   -2.0534   -1.4083 C   0  0  0  0  0  0  0  0  0  0  0  0
    4.5570   -0.7345   -1.1548 C   0  0  0  0  0  0  0  0  0  0  0  0
    3.1283   -0.8910   -1.2494 O   0  0  0  0  0  0  0  0  0  0  0  0
    2.4730   -1.3049   -0.1812 C   0  0  0  0  0  0  0  0  0  0  0  0
    2.9854   -1.5636    0.8832 O   0  0  0  0  0  0  0  0  0  0  0  0
    0.9847   -1.4316   -0.4587 C   0  0  0  0  0  0  0  0  0  0  0  0
    0.4246   -0.1202   -1.0104 C   0  0  0  0  0  0  0  0  0  0  0  0
    0.9554    0.1483   -1.9283 H   0  0  0  0  0  0  0  0  0  0  0  0
    0.5614    1.0123   -0.0121 C   0  0  0  0  0  0  0  0  0  0  0  0
   -0.3908    1.6477    0.3941 O   0  0  0  0  0  0  0  0  0  0  0  0
    1.8029    1.2021    0.3454 O   0  0  0  0  0  0  0  0  0  0  0  0
    2.0841    2.2284    1.3231 C   0  0  0  0  0  0  0  0  0  0  0  0
    2.2448    3.5833    0.6548 C   0  0  0  0  0  0  0  0  0  0  0  0
   -1.3253   -0.2598   -1.4868 S   0  0  0  0  0  0  0  0  0  0  0  0
   -2.3499   -0.0062    0.3644 P   0  0  0  0  0  0  0  0  0  0  0  0
   -1.5212   -0.6025    2.0398 S   0  0  0  0  0  0  0  0  0  0  0  0
   -3.0371    1.4142    0.4380 O   0  0  0  0  0  0  0  0  0  0  0  0
   -3.8188    1.9556   -0.6443 C   0  0  0  0  0  0  0  0  0  0  0  0
   -3.6592   -0.8800    0.0187 O   0  0  0  0  0  0  0  0  0  0  0  0
   -3.6108   -2.3055   -0.0650 C   0  0  0  0  0  0  0  0  0  0  0  0
    4.9784   -2.4578   -2.3736 H   0  0  0  0  0  0  0  0  0  0  0  0
    6.3424   -1.8895   -1.3978 H   0  0  0  0  0  0  0  0  0  0  0  0
    5.0155   -2.7704   -0.6311 H   0  0  0  0  0  0  0  0  0  0  0  0
    4.8008    0.0024   -1.9199 H   0  0  0  0  0  0  0  0  0  0  0  0
    4.7989   -0.3492   -0.1606 H   0  0  0  0  0  0  0  0  0  0  0  0
    0.4843   -1.7104    0.4713 H   0  0  0  0  0  0  0  0  0  0  0  0
    0.8351   -2.2160   -1.2023 H   0  0  0  0  0  0  0  0  0  0  0  0
    1.2696    2.2414    2.0528 H   0  0  0  0  0  0  0  0  0  0  0  0
    3.0080    1.8977    1.7982 H   0  0  0  0  0  0  0  0  0  0  0  0
    1.3073    3.8876    0.1951 H   0  0  0  0  0  0  0  0  0  0  0  0
    2.5222    4.3165    1.4048 H   0  0  0  0  0  0  0  0  0  0  0  0
    3.0186    3.5376   -0.1062 H   0  0  0  0  0  0  0  0  0  0  0  0
   -3.2130    2.0145   -1.5485 H   0  0  0  0  0  0  0  0  0  0  0  0
   -4.1081    2.9488   -0.3108 H   0  0  0  0  0  0  0  0  0  0  0  0
   -4.6938    1.3319   -0.8184 H   0  0  0  0  0  0  0  0  0  0  0  0
   -3.0727   -2.7130    0.7928 H   0  0  0  0  0  0  0  0  0  0  0  0
   -3.1213   -2.6058   -0.9913 H   0  0  0  0  0  0  0  0  0  0  0  0
   -4.6462   -2.6363   -0.0537 H   0  0  0  0  0  0  0  0  0  0  0  0
  1  2  1  0  0  0  0
  2  3  1  0  0  0  0
  3  4  1  0  0  0  0
  4  5  2  0  0  0  0
  4  6  1  0  0  0  0
  6  7  1  0  0  0  0
  7  8  1  0  0  0  0
  7  9  1  0  0  0  0
  9 10  2  0  0  0  0
  9 11  4  0  0  0  0
 11 12  1  0  0  0  0
 12 13  1  0  0  0  0
  7 14  1  0  0  0  0
 14 15  1  0  0  0  0
 15 16  2  0  0  0  0
 15 17  2  0  0  0  0
 17 18  1  0  0  0  0
 15 19  1  0  0  0  0
 19 20  1  0  0  0  0
  1 21  1  0  0  0  0
  1 22  1  0  0  0  0
  1 23  1  0  0  0  0
  2 24  1  0  0  0  0
  2 25  1  0  0  0  0
  6 26  1  0  0  0  0
  6 27  1  0  0  0  0
 12 28  1  0  0  0  0
 12 29  1  0  0  0  0
 13 30  1  0  0  0  0
 13 31  1  0  0  0  0
 13 32  1  0  0  0  0
 18 33  1  0  0  0  0
 18 34  1  0  0  0  0
 18 35  1  0  0  0  0
 20 36  1  0  0  0  0
 20 37  1  0  0  0  0
 20 38  1  0  0  0  0
M  END
