 xtb: 6.7.1 (edcfbbe)
          04092505203D

 41 40  0     0  0            999 V2000
    5.2187   -0.1262   -1.2742 C   0  0  0  0  0  0  0  0  0  0  0  0
    4.4455    1.0809   -0.7813 C   0  0  0  0  0  0  0  0  0  0  0  0
    3.5222    0.7153    0.2631 O   0  0  0  0  0  0  0  0  0  0  0  0
    1.9949    0.3949   -0.0204 P   0  0  0  0  0  0  0  0  0  0  0  0
    1.0418    1.7345   -1.0888 S   0  0  0  0  0  0  0  0  0  0  0  0
    1.4060    0.2758    1.4347 O   0  0  0  0  0  0  0  0  0  0  0  0
    2.0917   -0.2583    2.5969 C   0  0  0  0  0  0  0  0  0  0  0  0
    2.4417   -1.7239    2.4507 C   0  0  0  0  0  0  0  0  0  0  0  0
    2.0006   -1.5310   -0.9231 S   0  0  0  0  0  0  0  0  0  0  0  0
    0.2372   -1.6439   -1.2754 C   0  0  0  0  0  0  0  0  0  0  0  0
   -0.7807   -1.7652    0.2367 S   0  0  0  0  0  0  0  0  0  0  0  0
   -2.0137   -0.0760    0.0291 P   0  0  0  0  0  0  0  0  0  0  0  0
   -2.3354    0.5371   -1.8097 S   0  0  0  0  0  0  0  0  0  0  0  0
   -1.3845    0.9609    1.0439 O   0  0  0  0  0  0  0  0  0  0  0  0
   -1.6780    2.3697    0.9810 C   0  0  0  0  0  0  0  0  0  0  0  0
   -3.1259    2.6572    1.3128 C   0  0  0  0  0  0  0  0  0  0  0  0
   -3.2989   -0.5308    0.8513 O   0  0  0  0  0  0  0  0  0  0  0  0
   -4.2286   -1.5112    0.3497 C   0  0  0  0  0  0  0  0  0  0  0  0
   -5.4005   -0.8431   -0.3432 C   0  0  0  0  0  0  0  0  0  0  0  0
    4.5480   -0.8519   -1.7286 H   0  0  0  0  0  0  0  0  0  0  0  0
    5.9445    0.1982   -2.0130 H   0  0  0  0  0  0  0  0  0  0  0  0
    5.7384   -0.5990   -0.4458 H   0  0  0  0  0  0  0  0  0  0  0  0
    3.8894    1.5621   -1.5922 H   0  0  0  0  0  0  0  0  0  0  0  0
    5.1088    1.8122   -0.3154 H   0  0  0  0  0  0  0  0  0  0  0  0
    2.9844    0.3456    2.7687 H   0  0  0  0  0  0  0  0  0  0  0  0
    1.3694   -0.0973    3.3989 H   0  0  0  0  0  0  0  0  0  0  0  0
    3.1965   -1.8616    1.6796 H   0  0  0  0  0  0  0  0  0  0  0  0
    2.8328   -2.0855    3.3967 H   0  0  0  0  0  0  0  0  0  0  0  0
    1.5576   -2.3007    2.1868 H   0  0  0  0  0  0  0  0  0  0  0  0
    0.1014   -2.5584   -1.8470 H   0  0  0  0  0  0  0  0  0  0  0  0
   -0.0903   -0.7699   -1.8462 H   0  0  0  0  0  0  0  0  0  0  0  0
   -0.9923    2.8096    1.7069 H   0  0  0  0  0  0  0  0  0  0  0  0
   -1.4240    2.7328   -0.0210 H   0  0  0  0  0  0  0  0  0  0  0  0
   -3.3839    2.2198    2.2738 H   0  0  0  0  0  0  0  0  0  0  0  0
   -3.2801    3.7311    1.3457 H   0  0  0  0  0  0  0  0  0  0  0  0
   -3.7695    2.2292    0.5449 H   0  0  0  0  0  0  0  0  0  0  0  0
   -3.7065   -2.1895   -0.3316 H   0  0  0  0  0  0  0  0  0  0  0  0
   -4.5507   -2.0622    1.2352 H   0  0  0  0  0  0  0  0  0  0  0  0
   -5.0565   -0.2921   -1.2159 H   0  0  0  0  0  0  0  0  0  0  0  0
   -6.1075   -1.6025   -0.6611 H   0  0  0  0  0  0  0  0  0  0  0  0
   -5.8938   -0.1539    0.3365 H   0  0  0  0  0  0  0  0  0  0  0  0
  1  2  1  0  0  0  0
  2  3  1  0  0  0  0
  3  4  2  0  0  0  0
  4  5  2  0  0  0  0
  4  6  2  0  0  0  0
  6  7  1  0  0  0  0
  7  8  1  0  0  0  0
  4  9  1  0  0  0  0
  9 10  1  0  0  0  0
 10 11  1  0  0  0  0
 11 12  1  0  0  0  0
 12 13  2  0  0  0  0
 12 14  2  0  0  0  0
 14 15  1  0  0  0  0
 15 16  1  0  0  0  0
 12 17  2  0  0  0  0
 17 18  1  0  0  0  0
 18 19  1  0  0  0  0
  1 20  1  0  0  0  0
  1 21  1  0  0  0  0
  1 22  1  0  0  0  0
  2 23  1  0  0  0  0
  2 24  1  0  0  0  0
  7 25  1  0  0  0  0
  7 26  1  0  0  0  0
  8 27  1  0  0  0  0
  8 28  1  0  0  0  0
  8 29  1  0  0  0  0
 10 30  1  0  0  0  0
 10 31  1  0  0  0  0
 15 32  1  0  0  0  0
 15 33  1  0  0  0  0
 16 34  1  0  0  0  0
 16 35  1  0  0  0  0
 16 36  1  0  0  0  0
 18 37  1  0  0  0  0
 18 38  1  0  0  0  0
 19 39  1  0  0  0  0
 19 40  1  0  0  0  0
 19 41  1  0  0  0  0
M  END
