 xtb: 6.7.1 (edcfbbe)
          04092505203D

 41 40  0     0  0            999 V2000
    1.2454   -0.3283   -3.1631 C   0  0  0  0  0  0  0  0  0  0  0  0
    2.2776    0.4189   -2.3413 C   0  0  0  0  0  0  0  0  0  0  0  0
    2.8185   -0.4260   -1.3115 O   0  0  0  0  0  0  0  0  0  0  0  0
    2.4304   -0.3608    0.2210 P   0  0  0  0  0  0  0  0  0  0  0  0
    2.5371    1.3901    1.1064 S   0  0  0  0  0  0  0  0  0  0  0  0
    3.5249   -1.4148    0.6694 O   0  0  0  0  0  0  0  0  0  0  0  0
    4.0336   -1.4835    2.0117 C   0  0  0  0  0  0  0  0  0  0  0  0
    2.9762   -1.9273    3.0033 C   0  0  0  0  0  0  0  0  0  0  0  0
    0.5823   -1.3935    0.3772 S   0  0  0  0  0  0  0  0  0  0  0  0
   -0.2593   -0.3681    1.6398 C   0  0  0  0  0  0  0  0  0  0  0  0
   -2.0382   -0.3094    1.3812 S   0  0  0  0  0  0  0  0  0  0  0  0
   -2.0350    0.6585   -0.5169 P   0  0  0  0  0  0  0  0  0  0  0  0
   -0.6083    1.9655   -0.8227 S   0  0  0  0  0  0  0  0  0  0  0  0
   -3.5400    1.1521   -0.6546 O   0  0  0  0  0  0  0  0  0  0  0  0
   -4.2766    1.8819    0.3445 C   0  0  0  0  0  0  0  0  0  0  0  0
   -3.5674    3.1431    0.7907 C   0  0  0  0  0  0  0  0  0  0  0  0
   -1.9765   -0.4477   -1.6380 O   0  0  0  0  0  0  0  0  0  0  0  0
   -2.9100   -1.5544   -1.7405 C   0  0  0  0  0  0  0  0  0  0  0  0
   -2.2589   -2.8444   -1.2833 C   0  0  0  0  0  0  0  0  0  0  0  0
    1.6608   -1.2703   -3.5097 H   0  0  0  0  0  0  0  0  0  0  0  0
    0.3547   -0.5268   -2.5706 H   0  0  0  0  0  0  0  0  0  0  0  0
    0.9644    0.2821   -4.0154 H   0  0  0  0  0  0  0  0  0  0  0  0
    1.8498    1.3219   -1.8928 H   0  0  0  0  0  0  0  0  0  0  0  0
    3.1391    0.6970   -2.9521 H   0  0  0  0  0  0  0  0  0  0  0  0
    4.8495   -2.2041    1.9420 H   0  0  0  0  0  0  0  0  0  0  0  0
    4.4279   -0.4999    2.2856 H   0  0  0  0  0  0  0  0  0  0  0  0
    3.4410   -2.1089    3.9671 H   0  0  0  0  0  0  0  0  0  0  0  0
    2.2293   -1.1423    3.1159 H   0  0  0  0  0  0  0  0  0  0  0  0
    2.4929   -2.8378    2.6576 H   0  0  0  0  0  0  0  0  0  0  0  0
    0.1609    0.6408    1.5937 H   0  0  0  0  0  0  0  0  0  0  0  0
   -0.1196   -0.8136    2.6219 H   0  0  0  0  0  0  0  0  0  0  0  0
   -5.2215    2.1108   -0.1517 H   0  0  0  0  0  0  0  0  0  0  0  0
   -4.4520    1.2159    1.1938 H   0  0  0  0  0  0  0  0  0  0  0  0
   -3.3386    3.7739   -0.0653 H   0  0  0  0  0  0  0  0  0  0  0  0
   -4.2015    3.6898    1.4812 H   0  0  0  0  0  0  0  0  0  0  0  0
   -2.6322    2.8936    1.2907 H   0  0  0  0  0  0  0  0  0  0  0  0
   -3.8007   -1.3266   -1.1520 H   0  0  0  0  0  0  0  0  0  0  0  0
   -3.1702   -1.5943   -2.7994 H   0  0  0  0  0  0  0  0  0  0  0  0
   -1.3431   -3.0212   -1.8404 H   0  0  0  0  0  0  0  0  0  0  0  0
   -2.0132   -2.7997   -0.2250 H   0  0  0  0  0  0  0  0  0  0  0  0
   -2.9473   -3.6657   -1.4547 H   0  0  0  0  0  0  0  0  0  0  0  0
  1  2  1  0  0  0  0
  2  3  1  0  0  0  0
  3  4  2  0  0  0  0
  4  5  2  0  0  0  0
  4  6  2  0  0  0  0
  6  7  1  0  0  0  0
  7  8  1  0  0  0  0
  4  9  1  0  0  0  0
  9 10  1  0  0  0  0
 10 11  1  0  0  0  0
 11 12  1  0  0  0  0
 12 13  2  0  0  0  0
 12 14  2  0  0  0  0
 14 15  1  0  0  0  0
 15 16  1  0  0  0  0
 12 17  2  0  0  0  0
 17 18  1  0  0  0  0
 18 19  1  0  0  0  0
  1 20  1  0  0  0  0
  1 21  1  0  0  0  0
  1 22  1  0  0  0  0
  2 23  1  0  0  0  0
  2 24  1  0  0  0  0
  7 25  1  0  0  0  0
  7 26  1  0  0  0  0
  8 27  1  0  0  0  0
  8 28  1  0  0  0  0
  8 29  1  0  0  0  0
 10 30  1  0  0  0  0
 10 31  1  0  0  0  0
 15 32  1  0  0  0  0
 15 33  1  0  0  0  0
 16 34  1  0  0  0  0
 16 35  1  0  0  0  0
 16 36  1  0  0  0  0
 18 37  1  0  0  0  0
 18 38  1  0  0  0  0
 19 39  1  0  0  0  0
 19 40  1  0  0  0  0
 19 41  1  0  0  0  0
M  END
