 xtb: 6.7.1 (edcfbbe)
          04092505203D

 41 40  0     0  0            999 V2000
    4.6513   -1.4240   -1.0550 C   0  0  0  0  0  0  0  0  0  0  0  0
    4.6413   -0.0223   -0.4808 C   0  0  0  0  0  0  0  0  0  0  0  0
    3.5229    0.1953    0.3957 O   0  0  0  0  0  0  0  0  0  0  0  0
    2.0266    0.2932   -0.1414 P   0  0  0  0  0  0  0  0  0  0  0  0
    1.8925    1.1761   -1.8936 S   0  0  0  0  0  0  0  0  0  0  0  0
    1.3140    0.9235    1.1283 O   0  0  0  0  0  0  0  0  0  0  0  0
    1.7752    2.1264    1.7827 C   0  0  0  0  0  0  0  0  0  0  0  0
    1.4197    3.3724    0.9966 C   0  0  0  0  0  0  0  0  0  0  0  0
    1.2957   -1.6800   -0.0419 S   0  0  0  0  0  0  0  0  0  0  0  0
    0.1300   -1.6699   -1.4431 C   0  0  0  0  0  0  0  0  0  0  0  0
   -1.5625   -2.0633   -0.9471 S   0  0  0  0  0  0  0  0  0  0  0  0
   -1.9944   -0.3388    0.1947 P   0  0  0  0  0  0  0  0  0  0  0  0
   -1.4747    1.3753   -0.6152 S   0  0  0  0  0  0  0  0  0  0  0  0
   -1.3187   -0.7344    1.5713 O   0  0  0  0  0  0  0  0  0  0  0  0
   -1.7808   -0.3133    2.8740 C   0  0  0  0  0  0  0  0  0  0  0  0
   -1.9664    1.1862    2.9716 C   0  0  0  0  0  0  0  0  0  0  0  0
   -3.5412   -0.4689    0.5339 O   0  0  0  0  0  0  0  0  0  0  0  0
   -4.5623    0.0739   -0.3212 C   0  0  0  0  0  0  0  0  0  0  0  0
   -4.6869   -0.6968   -1.6190 C   0  0  0  0  0  0  0  0  0  0  0  0
    3.8139   -1.5495   -1.7397 H   0  0  0  0  0  0  0  0  0  0  0  0
    5.5772   -1.5816   -1.5984 H   0  0  0  0  0  0  0  0  0  0  0  0
    4.5671   -2.1594   -0.2591 H   0  0  0  0  0  0  0  0  0  0  0  0
    4.5998    0.7209   -1.2836 H   0  0  0  0  0  0  0  0  0  0  0  0
    5.5100    0.1604    0.1532 H   0  0  0  0  0  0  0  0  0  0  0  0
    1.2678    2.1054    2.7493 H   0  0  0  0  0  0  0  0  0  0  0  0
    2.8542    2.0490    1.9349 H   0  0  0  0  0  0  0  0  0  0  0  0
    1.9748    3.4027    0.0607 H   0  0  0  0  0  0  0  0  0  0  0  0
    0.3579    3.3768    0.7575 H   0  0  0  0  0  0  0  0  0  0  0  0
    1.6617    4.2527    1.5833 H   0  0  0  0  0  0  0  0  0  0  0  0
    0.4235   -2.4530   -2.1374 H   0  0  0  0  0  0  0  0  0  0  0  0
    0.1671   -0.6862   -1.9212 H   0  0  0  0  0  0  0  0  0  0  0  0
   -2.7153   -0.8380    3.0846 H   0  0  0  0  0  0  0  0  0  0  0  0
   -0.9948   -0.6658    3.5442 H   0  0  0  0  0  0  0  0  0  0  0  0
   -1.0538    1.6970    2.6742 H   0  0  0  0  0  0  0  0  0  0  0  0
   -2.7695    1.5104    2.3108 H   0  0  0  0  0  0  0  0  0  0  0  0
   -2.2155    1.4553    3.9933 H   0  0  0  0  0  0  0  0  0  0  0  0
   -5.4703    0.0027    0.2793 H   0  0  0  0  0  0  0  0  0  0  0  0
   -4.3252    1.1244   -0.5195 H   0  0  0  0  0  0  0  0  0  0  0  0
   -3.7954   -0.5492   -2.2268 H   0  0  0  0  0  0  0  0  0  0  0  0
   -4.8000   -1.7591   -1.4185 H   0  0  0  0  0  0  0  0  0  0  0  0
   -5.5508   -0.3371   -2.1686 H   0  0  0  0  0  0  0  0  0  0  0  0
  1  2  1  0  0  0  0
  2  3  1  0  0  0  0
  3  4  2  0  0  0  0
  4  5  2  0  0  0  0
  4  6  2  0  0  0  0
  6  7  1  0  0  0  0
  7  8  1  0  0  0  0
  4  9  1  0  0  0  0
  9 10  1  0  0  0  0
 10 11  1  0  0  0  0
 11 12  1  0  0  0  0
 12 13  2  0  0  0  0
 12 14  2  0  0  0  0
 14 15  1  0  0  0  0
 15 16  1  0  0  0  0
 12 17  2  0  0  0  0
 17 18  1  0  0  0  0
 18 19  1  0  0  0  0
  1 20  1  0  0  0  0
  1 21  1  0  0  0  0
  1 22  1  0  0  0  0
  2 23  1  0  0  0  0
  2 24  1  0  0  0  0
  7 25  1  0  0  0  0
  7 26  1  0  0  0  0
  8 27  1  0  0  0  0
  8 28  1  0  0  0  0
  8 29  1  0  0  0  0
 10 30  1  0  0  0  0
 10 31  1  0  0  0  0
 15 32  1  0  0  0  0
 15 33  1  0  0  0  0
 16 34  1  0  0  0  0
 16 35  1  0  0  0  0
 16 36  1  0  0  0  0
 18 37  1  0  0  0  0
 18 38  1  0  0  0  0
 19 39  1  0  0  0  0
 19 40  1  0  0  0  0
 19 41  1  0  0  0  0
M  END
