 xtb: 6.7.1 (edcfbbe)
          04092505213D

 41 40  0     0  0            999 V2000
    3.4566   -1.3380   -2.8507 C   0  0  0  0  0  0  0  0  0  0  0  0
    4.2036   -0.2979   -2.0391 C   0  0  0  0  0  0  0  0  0  0  0  0
    3.8145   -0.3117   -0.6564 O   0  0  0  0  0  0  0  0  0  0  0  0
    2.4023    0.2031   -0.1547 P   0  0  0  0  0  0  0  0  0  0  0  0
    1.6600    1.6574   -1.2464 S   0  0  0  0  0  0  0  0  0  0  0  0
    2.9053    0.5158    1.3105 O   0  0  0  0  0  0  0  0  0  0  0  0
    2.1037    0.8403    2.4560 C   0  0  0  0  0  0  0  0  0  0  0  0
    1.3966    2.1722    2.3075 C   0  0  0  0  0  0  0  0  0  0  0  0
    1.1795   -1.5272    0.0540 S   0  0  0  0  0  0  0  0  0  0  0  0
   -0.0022   -1.2282   -1.3097 C   0  0  0  0  0  0  0  0  0  0  0  0
   -1.7260   -1.5389   -0.8777 S   0  0  0  0  0  0  0  0  0  0  0  0
   -2.0555    0.0012    0.5681 P   0  0  0  0  0  0  0  0  0  0  0  0
   -1.2665   -0.2780    2.3407 S   0  0  0  0  0  0  0  0  0  0  0  0
   -3.6318    0.1830    0.5196 O   0  0  0  0  0  0  0  0  0  0  0  0
   -4.5872   -0.8941    0.5445 C   0  0  0  0  0  0  0  0  0  0  0  0
   -4.3849   -1.8335    1.7143 C   0  0  0  0  0  0  0  0  0  0  0  0
   -1.5370    1.3694   -0.0233 O   0  0  0  0  0  0  0  0  0  0  0  0
   -2.2111    2.1879   -1.0124 C   0  0  0  0  0  0  0  0  0  0  0  0
   -1.9765    1.7027   -2.4280 C   0  0  0  0  0  0  0  0  0  0  0  0
    3.5217   -2.3093   -2.3668 H   0  0  0  0  0  0  0  0  0  0  0  0
    2.4098   -1.0526   -2.9419 H   0  0  0  0  0  0  0  0  0  0  0  0
    3.8919   -1.3999   -3.8429 H   0  0  0  0  0  0  0  0  0  0  0  0
    4.0299    0.7047   -2.4435 H   0  0  0  0  0  0  0  0  0  0  0  0
    5.2745   -0.5034   -2.0092 H   0  0  0  0  0  0  0  0  0  0  0  0
    1.3797    0.0397    2.6351 H   0  0  0  0  0  0  0  0  0  0  0  0
    2.8267    0.8651    3.2733 H   0  0  0  0  0  0  0  0  0  0  0  0
    0.9120    2.4216    3.2462 H   0  0  0  0  0  0  0  0  0  0  0  0
    2.1065    2.9520    2.0425 H   0  0  0  0  0  0  0  0  0  0  0  0
    0.6328    2.1110    1.5330 H   0  0  0  0  0  0  0  0  0  0  0  0
    0.2101   -1.9307   -2.1124 H   0  0  0  0  0  0  0  0  0  0  0  0
    0.1182   -0.1918   -1.6371 H   0  0  0  0  0  0  0  0  0  0  0  0
   -5.5488   -0.3813    0.6066 H   0  0  0  0  0  0  0  0  0  0  0  0
   -4.5130   -1.4365   -0.4021 H   0  0  0  0  0  0  0  0  0  0  0  0
   -5.1760   -2.5763    1.7213 H   0  0  0  0  0  0  0  0  0  0  0  0
   -3.4241   -2.3398    1.6273 H   0  0  0  0  0  0  0  0  0  0  0  0
   -4.3981   -1.2827    2.6520 H   0  0  0  0  0  0  0  0  0  0  0  0
   -3.2745    2.2099   -0.7706 H   0  0  0  0  0  0  0  0  0  0  0  0
   -1.7725    3.1753   -0.8597 H   0  0  0  0  0  0  0  0  0  0  0  0
   -2.4718    2.3837   -3.1131 H   0  0  0  0  0  0  0  0  0  0  0  0
   -0.9118    1.6989   -2.6509 H   0  0  0  0  0  0  0  0  0  0  0  0
   -2.3833    0.7039   -2.5683 H   0  0  0  0  0  0  0  0  0  0  0  0
  1  2  1  0  0  0  0
  2  3  1  0  0  0  0
  3  4  2  0  0  0  0
  4  5  2  0  0  0  0
  4  6  2  0  0  0  0
  6  7  1  0  0  0  0
  7  8  1  0  0  0  0
  4  9  1  0  0  0  0
  9 10  1  0  0  0  0
 10 11  1  0  0  0  0
 11 12  1  0  0  0  0
 12 13  2  0  0  0  0
 12 14  2  0  0  0  0
 14 15  1  0  0  0  0
 15 16  1  0  0  0  0
 12 17  2  0  0  0  0
 17 18  1  0  0  0  0
 18 19  1  0  0  0  0
  1 20  1  0  0  0  0
  1 21  1  0  0  0  0
  1 22  1  0  0  0  0
  2 23  1  0  0  0  0
  2 24  1  0  0  0  0
  7 25  1  0  0  0  0
  7 26  1  0  0  0  0
  8 27  1  0  0  0  0
  8 28  1  0  0  0  0
  8 29  1  0  0  0  0
 10 30  1  0  0  0  0
 10 31  1  0  0  0  0
 15 32  1  0  0  0  0
 15 33  1  0  0  0  0
 16 34  1  0  0  0  0
 16 35  1  0  0  0  0
 16 36  1  0  0  0  0
 18 37  1  0  0  0  0
 18 38  1  0  0  0  0
 19 39  1  0  0  0  0
 19 40  1  0  0  0  0
 19 41  1  0  0  0  0
M  END
