 xtb: 6.7.1 (edcfbbe)
          04092505203D

 41 40  0     0  0            999 V2000
    4.3915   -1.1224   -2.2566 C   0  0  0  0  0  0  0  0  0  0  0  0
    4.9081   -0.8658   -0.8559 C   0  0  0  0  0  0  0  0  0  0  0  0
    3.8752   -0.9773    0.1399 O   0  0  0  0  0  0  0  0  0  0  0  0
    2.6465    0.0292    0.2111 P   0  0  0  0  0  0  0  0  0  0  0  0
    3.0608    1.9062   -0.1468 S   0  0  0  0  0  0  0  0  0  0  0  0
    2.1014   -0.1691    1.6759 O   0  0  0  0  0  0  0  0  0  0  0  0
    1.6824   -1.4372    2.2374 C   0  0  0  0  0  0  0  0  0  0  0  0
    2.8305   -2.1355    2.9368 C   0  0  0  0  0  0  0  0  0  0  0  0
    1.1774   -0.8635   -1.0575 S   0  0  0  0  0  0  0  0  0  0  0  0
    0.1325    0.6035   -1.1908 C   0  0  0  0  0  0  0  0  0  0  0  0
   -0.8456    0.9103    0.3031 S   0  0  0  0  0  0  0  0  0  0  0  0
   -2.7979    0.4202   -0.4512 P   0  0  0  0  0  0  0  0  0  0  0  0
   -2.8907   -0.2306   -2.2913 S   0  0  0  0  0  0  0  0  0  0  0  0
   -3.6158    1.7554   -0.2717 O   0  0  0  0  0  0  0  0  0  0  0  0
   -3.6661    2.5525    0.9353 C   0  0  0  0  0  0  0  0  0  0  0  0
   -4.7524    2.0723    1.8755 C   0  0  0  0  0  0  0  0  0  0  0  0
   -3.4432   -0.5393    0.6424 O   0  0  0  0  0  0  0  0  0  0  0  0
   -3.3002   -1.9700    0.5884 C   0  0  0  0  0  0  0  0  0  0  0  0
   -1.8756   -2.4132    0.8515 C   0  0  0  0  0  0  0  0  0  0  0  0
    3.7224   -0.3189   -2.5612 H   0  0  0  0  0  0  0  0  0  0  0  0
    5.2292   -1.1588   -2.9457 H   0  0  0  0  0  0  0  0  0  0  0  0
    3.8499   -2.0643   -2.2957 H   0  0  0  0  0  0  0  0  0  0  0  0
    5.3467    0.1343   -0.7855 H   0  0  0  0  0  0  0  0  0  0  0  0
    5.6417   -1.6148   -0.5546 H   0  0  0  0  0  0  0  0  0  0  0  0
    0.8943   -1.1641    2.9416 H   0  0  0  0  0  0  0  0  0  0  0  0
    1.2710   -2.0597    1.4379 H   0  0  0  0  0  0  0  0  0  0  0  0
    3.2646   -1.4799    3.6867 H   0  0  0  0  0  0  0  0  0  0  0  0
    2.4562   -3.0333    3.4187 H   0  0  0  0  0  0  0  0  0  0  0  0
    3.6006   -2.4076    2.2204 H   0  0  0  0  0  0  0  0  0  0  0  0
   -0.5439    0.4403   -2.0328 H   0  0  0  0  0  0  0  0  0  0  0  0
    0.7720    1.4723   -1.3508 H   0  0  0  0  0  0  0  0  0  0  0  0
   -2.6838    2.5257    1.4160 H   0  0  0  0  0  0  0  0  0  0  0  0
   -3.8708    3.5619    0.5735 H   0  0  0  0  0  0  0  0  0  0  0  0
   -4.8210    2.7582    2.7141 H   0  0  0  0  0  0  0  0  0  0  0  0
   -5.7067    2.0444    1.3564 H   0  0  0  0  0  0  0  0  0  0  0  0
   -4.5235    1.0765    2.2442 H   0  0  0  0  0  0  0  0  0  0  0  0
   -3.9824   -2.3292    1.3603 H   0  0  0  0  0  0  0  0  0  0  0  0
   -3.6361   -2.3140   -0.3946 H   0  0  0  0  0  0  0  0  0  0  0  0
   -1.8470   -3.4943    0.9403 H   0  0  0  0  0  0  0  0  0  0  0  0
   -1.2321   -2.1144    0.0244 H   0  0  0  0  0  0  0  0  0  0  0  0
   -1.5072   -1.9654    1.7711 H   0  0  0  0  0  0  0  0  0  0  0  0
  1  2  1  0  0  0  0
  2  3  1  0  0  0  0
  3  4  2  0  0  0  0
  4  5  2  0  0  0  0
  4  6  2  0  0  0  0
  6  7  1  0  0  0  0
  7  8  1  0  0  0  0
  4  9  1  0  0  0  0
  9 10  1  0  0  0  0
 10 11  1  0  0  0  0
 11 12  1  0  0  0  0
 12 13  2  0  0  0  0
 12 14  2  0  0  0  0
 14 15  1  0  0  0  0
 15 16  1  0  0  0  0
 12 17  2  0  0  0  0
 17 18  1  0  0  0  0
 18 19  1  0  0  0  0
  1 20  1  0  0  0  0
  1 21  1  0  0  0  0
  1 22  1  0  0  0  0
  2 23  1  0  0  0  0
  2 24  1  0  0  0  0
  7 25  1  0  0  0  0
  7 26  1  0  0  0  0
  8 27  1  0  0  0  0
  8 28  1  0  0  0  0
  8 29  1  0  0  0  0
 10 30  1  0  0  0  0
 10 31  1  0  0  0  0
 15 32  1  0  0  0  0
 15 33  1  0  0  0  0
 16 34  1  0  0  0  0
 16 35  1  0  0  0  0
 16 36  1  0  0  0  0
 18 37  1  0  0  0  0
 18 38  1  0  0  0  0
 19 39  1  0  0  0  0
 19 40  1  0  0  0  0
 19 41  1  0  0  0  0
M  END
