 xtb: 6.7.1 (edcfbbe)
          04092505213D

 41 40  0     0  0            999 V2000
    2.7072   -0.8773   -2.7681 C   0  0  0  0  0  0  0  0  0  0  0  0
    1.6386    0.0130   -2.1722 C   0  0  0  0  0  0  0  0  0  0  0  0
    1.1007   -0.5404   -0.9555 O   0  0  0  0  0  0  0  0  0  0  0  0
    1.9711   -0.6104    0.3774 P   0  0  0  0  0  0  0  0  0  0  0  0
    3.3213    0.7930    0.6276 S   0  0  0  0  0  0  0  0  0  0  0  0
    2.5489   -2.0868    0.2829 O   0  0  0  0  0  0  0  0  0  0  0  0
    3.6539   -2.5375    1.0872 C   0  0  0  0  0  0  0  0  0  0  0  0
    3.2831   -2.6489    2.5519 C   0  0  0  0  0  0  0  0  0  0  0  0
    0.4345   -0.8005    1.8042 S   0  0  0  0  0  0  0  0  0  0  0  0
    0.0021    0.9565    1.9990 C   0  0  0  0  0  0  0  0  0  0  0  0
   -0.0874    1.8817    0.4385 S   0  0  0  0  0  0  0  0  0  0  0  0
   -1.8157    1.0327   -0.4342 P   0  0  0  0  0  0  0  0  0  0  0  0
   -1.9094    1.3007   -2.3724 S   0  0  0  0  0  0  0  0  0  0  0  0
   -2.8696    1.7543    0.5103 O   0  0  0  0  0  0  0  0  0  0  0  0
   -4.2415    1.3276    0.6596 C   0  0  0  0  0  0  0  0  0  0  0  0
   -5.0549    1.5620   -0.5965 C   0  0  0  0  0  0  0  0  0  0  0  0
   -1.9556   -0.4789    0.0368 O   0  0  0  0  0  0  0  0  0  0  0  0
   -1.8022   -1.6289   -0.8100 C   0  0  0  0  0  0  0  0  0  0  0  0
   -3.0657   -2.4624   -0.7319 C   0  0  0  0  0  0  0  0  0  0  0  0
    2.3250   -1.8861   -2.8990 H   0  0  0  0  0  0  0  0  0  0  0  0
    3.0106   -0.4758   -3.7299 H   0  0  0  0  0  0  0  0  0  0  0  0
    3.5726   -0.9078   -2.1070 H   0  0  0  0  0  0  0  0  0  0  0  0
    0.7721    0.1109   -2.8298 H   0  0  0  0  0  0  0  0  0  0  0  0
    2.0362    1.0100   -1.9518 H   0  0  0  0  0  0  0  0  0  0  0  0
    3.9098   -3.5077    0.6595 H   0  0  0  0  0  0  0  0  0  0  0  0
    4.4857   -1.8384    0.9540 H   0  0  0  0  0  0  0  0  0  0  0  0
    3.0935   -1.6585    2.9634 H   0  0  0  0  0  0  0  0  0  0  0  0
    2.3885   -3.2547    2.6708 H   0  0  0  0  0  0  0  0  0  0  0  0
    4.1040   -3.1047    3.0961 H   0  0  0  0  0  0  0  0  0  0  0  0
    0.7773    1.4543    2.5789 H   0  0  0  0  0  0  0  0  0  0  0  0
   -0.9569    0.9889    2.5100 H   0  0  0  0  0  0  0  0  0  0  0  0
   -4.2474    0.2715    0.9396 H   0  0  0  0  0  0  0  0  0  0  0  0
   -4.6076    1.9346    1.4895 H   0  0  0  0  0  0  0  0  0  0  0  0
   -4.6688    0.9591   -1.4170 H   0  0  0  0  0  0  0  0  0  0  0  0
   -6.0897    1.2912   -0.4115 H   0  0  0  0  0  0  0  0  0  0  0  0
   -5.0034    2.6077   -0.8897 H   0  0  0  0  0  0  0  0  0  0  0  0
   -1.6115   -1.2917   -1.8342 H   0  0  0  0  0  0  0  0  0  0  0  0
   -0.9345   -2.1806   -0.4402 H   0  0  0  0  0  0  0  0  0  0  0  0
   -2.9318   -3.3631   -1.3218 H   0  0  0  0  0  0  0  0  0  0  0  0
   -3.2677   -2.7360    0.2999 H   0  0  0  0  0  0  0  0  0  0  0  0
   -3.9103   -1.9023   -1.1262 H   0  0  0  0  0  0  0  0  0  0  0  0
  1  2  1  0  0  0  0
  2  3  1  0  0  0  0
  3  4  1  0  0  0  0
  4  5  2  0  0  0  0
  4  6  2  0  0  0  0
  6  7  1  0  0  0  0
  7  8  1  0  0  0  0
  4  9  1  0  0  0  0
  9 10  1  0  0  0  0
 10 11  1  0  0  0  0
 11 12  1  0  0  0  0
 12 13  2  0  0  0  0
 12 14  2  0  0  0  0
 14 15  1  0  0  0  0
 15 16  1  0  0  0  0
 12 17  2  0  0  0  0
 17 18  1  0  0  0  0
 18 19  1  0  0  0  0
  1 20  1  0  0  0  0
  1 21  1  0  0  0  0
  1 22  1  0  0  0  0
  2 23  1  0  0  0  0
  2 24  1  0  0  0  0
  7 25  1  0  0  0  0
  7 26  1  0  0  0  0
  8 27  1  0  0  0  0
  8 28  1  0  0  0  0
  8 29  1  0  0  0  0
 10 30  1  0  0  0  0
 10 31  1  0  0  0  0
 15 32  1  0  0  0  0
 15 33  1  0  0  0  0
 16 34  1  0  0  0  0
 16 35  1  0  0  0  0
 16 36  1  0  0  0  0
 18 37  1  0  0  0  0
 18 38  1  0  0  0  0
 19 39  1  0  0  0  0
 19 40  1  0  0  0  0
 19 41  1  0  0  0  0
M  END
