 xtb: 6.7.1 (edcfbbe)
          04092505203D

 41 40  0     0  0            999 V2000
    2.3127    0.7525   -2.9408 C   0  0  0  0  0  0  0  0  0  0  0  0
    1.8817   -0.5366   -2.2715 C   0  0  0  0  0  0  0  0  0  0  0  0
    2.6752   -0.8164   -1.1075 O   0  0  0  0  0  0  0  0  0  0  0  0
    2.4127   -0.2354    0.3538 P   0  0  0  0  0  0  0  0  0  0  0  0
    2.5644    1.6882    0.6644 S   0  0  0  0  0  0  0  0  0  0  0  0
    3.5313   -0.9902    1.1638 O   0  0  0  0  0  0  0  0  0  0  0  0
    3.6600   -2.4356    1.2097 C   0  0  0  0  0  0  0  0  0  0  0  0
    3.2700   -2.9475    2.5820 C   0  0  0  0  0  0  0  0  0  0  0  0
    0.5704   -1.1511    0.8980 S   0  0  0  0  0  0  0  0  0  0  0  0
   -0.2264    0.2329    1.7790 C   0  0  0  0  0  0  0  0  0  0  0  0
   -2.0076    0.2207    1.5422 S   0  0  0  0  0  0  0  0  0  0  0  0
   -2.0130    0.5766   -0.5646 P   0  0  0  0  0  0  0  0  0  0  0  0
   -0.6902    1.8917   -1.1701 S   0  0  0  0  0  0  0  0  0  0  0  0
   -3.5474    0.8427   -0.8723 O   0  0  0  0  0  0  0  0  0  0  0  0
   -4.4028    1.7322   -0.1310 C   0  0  0  0  0  0  0  0  0  0  0  0
   -3.8614    3.1448   -0.0670 C   0  0  0  0  0  0  0  0  0  0  0  0
   -1.7658   -0.7722   -1.3436 O   0  0  0  0  0  0  0  0  0  0  0  0
   -2.6747   -1.8974   -1.4451 C   0  0  0  0  0  0  0  0  0  0  0  0
   -2.7083   -2.7267   -0.1771 C   0  0  0  0  0  0  0  0  0  0  0  0
    2.1039    1.6019   -2.2924 H   0  0  0  0  0  0  0  0  0  0  0  0
    3.3774    0.7269   -3.1555 H   0  0  0  0  0  0  0  0  0  0  0  0
    1.7565    0.8795   -3.8640 H   0  0  0  0  0  0  0  0  0  0  0  0
    2.0510   -1.3972   -2.9218 H   0  0  0  0  0  0  0  0  0  0  0  0
    0.8240   -0.4915   -1.9926 H   0  0  0  0  0  0  0  0  0  0  0  0
    3.0399   -2.8772    0.4268 H   0  0  0  0  0  0  0  0  0  0  0  0
    4.7123   -2.6290    0.9963 H   0  0  0  0  0  0  0  0  0  0  0  0
    3.4771   -4.0116    2.6347 H   0  0  0  0  0  0  0  0  0  0  0  0
    3.8447   -2.4315    3.3460 H   0  0  0  0  0  0  0  0  0  0  0  0
    2.2111   -2.7820    2.7640 H   0  0  0  0  0  0  0  0  0  0  0  0
    0.2002    1.1673    1.4005 H   0  0  0  0  0  0  0  0  0  0  0  0
   -0.0571    0.1274    2.8477 H   0  0  0  0  0  0  0  0  0  0  0  0
   -5.3476    1.6922   -0.6762 H   0  0  0  0  0  0  0  0  0  0  0  0
   -4.5335    1.3223    0.8741 H   0  0  0  0  0  0  0  0  0  0  0  0
   -3.6732    3.5256   -1.0682 H   0  0  0  0  0  0  0  0  0  0  0  0
   -4.5804    3.7858    0.4327 H   0  0  0  0  0  0  0  0  0  0  0  0
   -2.9241    3.1643    0.4877 H   0  0  0  0  0  0  0  0  0  0  0  0
   -3.6657   -1.5199   -1.7016 H   0  0  0  0  0  0  0  0  0  0  0  0
   -2.2665   -2.4672   -2.2815 H   0  0  0  0  0  0  0  0  0  0  0  0
   -1.6960   -2.9686    0.1392 H   0  0  0  0  0  0  0  0  0  0  0  0
   -3.2059   -2.1881    0.6255 H   0  0  0  0  0  0  0  0  0  0  0  0
   -3.2509   -3.6460   -0.3741 H   0  0  0  0  0  0  0  0  0  0  0  0
  1  2  1  0  0  0  0
  2  3  1  0  0  0  0
  3  4  2  0  0  0  0
  4  5  2  0  0  0  0
  4  6  2  0  0  0  0
  6  7  1  0  0  0  0
  7  8  1  0  0  0  0
  4  9  1  0  0  0  0
  9 10  1  0  0  0  0
 10 11  1  0  0  0  0
 11 12  1  0  0  0  0
 12 13  2  0  0  0  0
 12 14  2  0  0  0  0
 14 15  1  0  0  0  0
 15 16  1  0  0  0  0
 12 17  2  0  0  0  0
 17 18  1  0  0  0  0
 18 19  1  0  0  0  0
  1 20  1  0  0  0  0
  1 21  1  0  0  0  0
  1 22  1  0  0  0  0
  2 23  1  0  0  0  0
  2 24  1  0  0  0  0
  7 25  1  0  0  0  0
  7 26  1  0  0  0  0
  8 27  1  0  0  0  0
  8 28  1  0  0  0  0
  8 29  1  0  0  0  0
 10 30  1  0  0  0  0
 10 31  1  0  0  0  0
 15 32  1  0  0  0  0
 15 33  1  0  0  0  0
 16 34  1  0  0  0  0
 16 35  1  0  0  0  0
 16 36  1  0  0  0  0
 18 37  1  0  0  0  0
 18 38  1  0  0  0  0
 19 39  1  0  0  0  0
 19 40  1  0  0  0  0
 19 41  1  0  0  0  0
M  END
