 xtb: 6.7.1 (edcfbbe)
          04092507313D

 38 37  0     0  0            999 V2000
    3.2947   -2.9367   -2.8891 C   0  0  0  0  0  0  0  0  0  0  0  0
    2.1450   -3.1714   -1.9223 C   0  0  0  0  0  0  0  0  0  0  0  0
    1.9009   -2.0034   -1.1165 O   0  0  0  0  0  0  0  0  0  0  0  0
    2.6159   -1.8411   -0.0204 C   0  0  0  0  0  0  0  0  0  0  0  0
    3.4583   -2.6182    0.3703 O   0  0  0  0  0  0  0  0  0  0  0  0
    2.2849   -0.5552    0.7143 C   0  0  0  0  0  0  0  0  0  0  0  0
    0.9587    0.0627    0.2961 C   0  0  0  0  0  0  0  0  0  0  0  0
    0.9253    0.1917   -0.7915 H   0  0  0  0  0  0  0  0  0  0  0  0
    0.7215    1.4243    0.9247 C   0  0  0  0  0  0  0  0  0  0  0  0
   -0.3207    1.7145    1.4754 O   0  0  0  0  0  0  0  0  0  0  0  0
    1.7502    2.2155    0.7827 O   0  0  0  0  0  0  0  0  0  0  0  0
    1.6249    3.5865    1.2202 C   0  0  0  0  0  0  0  0  0  0  0  0
    1.0417    4.4430    0.1088 C   0  0  0  0  0  0  0  0  0  0  0  0
   -0.4407   -1.0143    0.7627 S   0  0  0  0  0  0  0  0  0  0  0  0
   -2.0119    0.2124    0.0229 P   0  0  0  0  0  0  0  0  0  0  0  0
   -1.5631    1.4879   -1.3909 S   0  0  0  0  0  0  0  0  0  0  0  0
   -3.0459   -0.9168   -0.4738 O   0  0  0  0  0  0  0  0  0  0  0  0
   -2.7539   -1.7401   -1.6053 C   0  0  0  0  0  0  0  0  0  0  0  0
   -2.8690    0.8252    1.1976 O   0  0  0  0  0  0  0  0  0  0  0  0
   -3.2871    0.0549    2.3400 C   0  0  0  0  0  0  0  0  0  0  0  0
    3.0951   -2.0640   -3.5050 H   0  0  0  0  0  0  0  0  0  0  0  0
    4.2195   -2.7801   -2.3387 H   0  0  0  0  0  0  0  0  0  0  0  0
    3.4086   -3.8063   -3.5279 H   0  0  0  0  0  0  0  0  0  0  0  0
    2.3627   -4.0125   -1.2583 H   0  0  0  0  0  0  0  0  0  0  0  0
    1.2075   -3.3374   -2.4532 H   0  0  0  0  0  0  0  0  0  0  0  0
    3.0866    0.1583    0.5062 H   0  0  0  0  0  0  0  0  0  0  0  0
    2.2970   -0.7735    1.7835 H   0  0  0  0  0  0  0  0  0  0  0  0
    0.9888    3.6131    2.1087 H   0  0  0  0  0  0  0  0  0  0  0  0
    2.6433    3.8867    1.4660 H   0  0  0  0  0  0  0  0  0  0  0  0
    0.0457    4.0904   -0.1548 H   0  0  0  0  0  0  0  0  0  0  0  0
    0.9734    5.4723    0.4445 H   0  0  0  0  0  0  0  0  0  0  0  0
    1.6709    4.3927   -0.7752 H   0  0  0  0  0  0  0  0  0  0  0  0
   -1.9672   -2.4513   -1.3523 H   0  0  0  0  0  0  0  0  0  0  0  0
   -2.4408   -1.1209   -2.4477 H   0  0  0  0  0  0  0  0  0  0  0  0
   -3.6801   -2.2589   -1.8384 H   0  0  0  0  0  0  0  0  0  0  0  0
   -2.4124   -0.2883    2.8922 H   0  0  0  0  0  0  0  0  0  0  0  0
   -3.8886   -0.7937    2.0186 H   0  0  0  0  0  0  0  0  0  0  0  0
   -3.8740    0.7428    2.9429 H   0  0  0  0  0  0  0  0  0  0  0  0
  1  2  1  0  0  0  0
  2  3  1  0  0  0  0
  3  4  1  0  0  0  0
  4  5  2  0  0  0  0
  4  6  1  0  0  0  0
  6  7  1  0  0  0  0
  7  8  1  0  0  0  0
  7  9  1  0  0  0  0
  9 10  2  0  0  0  0
  9 11  4  0  0  0  0
 11 12  1  0  0  0  0
 12 13  1  0  0  0  0
  7 14  1  0  0  0  0
 14 15  1  0  0  0  0
 15 16  2  0  0  0  0
 15 17  1  0  0  0  0
 17 18  1  0  0  0  0
 15 19  2  0  0  0  0
 19 20  1  0  0  0  0
  1 21  1  0  0  0  0
  1 22  1  0  0  0  0
  1 23  1  0  0  0  0
  2 24  1  0  0  0  0
  2 25  1  0  0  0  0
  6 26  1  0  0  0  0
  6 27  1  0  0  0  0
 12 28  1  0  0  0  0
 12 29  1  0  0  0  0
 13 30  1  0  0  0  0
 13 31  1  0  0  0  0
 13 32  1  0  0  0  0
 18 33  1  0  0  0  0
 18 34  1  0  0  0  0
 18 35  1  0  0  0  0
 20 36  1  0  0  0  0
 20 37  1  0  0  0  0
 20 38  1  0  0  0  0
M  END
