 xtb: 6.7.1 (edcfbbe)
          04092505213D

 41 40  0     0  0            999 V2000
    5.1475   -0.0721   -2.4463 C   0  0  0  0  0  0  0  0  0  0  0  0
    3.7232   -0.5121   -2.1730 C   0  0  0  0  0  0  0  0  0  0  0  0
    3.4811   -0.3821   -0.7577 O   0  0  0  0  0  0  0  0  0  0  0  0
    2.0161   -0.2734   -0.1561 P   0  0  0  0  0  0  0  0  0  0  0  0
    0.8840    1.0186   -1.1156 S   0  0  0  0  0  0  0  0  0  0  0  0
    2.2950    0.0095    1.3729 O   0  0  0  0  0  0  0  0  0  0  0  0
    2.4548    1.3393    1.9055 C   0  0  0  0  0  0  0  0  0  0  0  0
    3.7033    2.0116    1.3777 C   0  0  0  0  0  0  0  0  0  0  0  0
    1.4721   -2.3073   -0.0804 S   0  0  0  0  0  0  0  0  0  0  0  0
   -0.2291   -2.2396    0.5529 C   0  0  0  0  0  0  0  0  0  0  0  0
   -1.4187   -1.5589   -0.6430 S   0  0  0  0  0  0  0  0  0  0  0  0
   -2.0487    0.1424    0.4419 P   0  0  0  0  0  0  0  0  0  0  0  0
   -0.9958    0.7057    1.9898 S   0  0  0  0  0  0  0  0  0  0  0  0
   -3.5018   -0.4133    0.8339 O   0  0  0  0  0  0  0  0  0  0  0  0
   -4.2478    0.1027    1.9513 C   0  0  0  0  0  0  0  0  0  0  0  0
   -4.7734    1.4997    1.6873 C   0  0  0  0  0  0  0  0  0  0  0  0
   -2.2851    1.3267   -0.5787 O   0  0  0  0  0  0  0  0  0  0  0  0
   -3.1684    1.2511   -1.7241 C   0  0  0  0  0  0  0  0  0  0  0  0
   -2.4197    0.8293   -2.9724 C   0  0  0  0  0  0  0  0  0  0  0  0
    5.3612   -0.1976   -3.5026 H   0  0  0  0  0  0  0  0  0  0  0  0
    5.2774    0.9720   -2.1759 H   0  0  0  0  0  0  0  0  0  0  0  0
    5.8379   -0.6752   -1.8641 H   0  0  0  0  0  0  0  0  0  0  0  0
    3.5691   -1.5586   -2.4479 H   0  0  0  0  0  0  0  0  0  0  0  0
    2.9990    0.1109   -2.7090 H   0  0  0  0  0  0  0  0  0  0  0  0
    1.5606    1.9218    1.6606 H   0  0  0  0  0  0  0  0  0  0  0  0
    2.4954    1.1810    2.9840 H   0  0  0  0  0  0  0  0  0  0  0  0
    4.5696    1.3781    1.5489 H   0  0  0  0  0  0  0  0  0  0  0  0
    3.6010    2.1904    0.3080 H   0  0  0  0  0  0  0  0  0  0  0  0
    3.8398    2.9619    1.8841 H   0  0  0  0  0  0  0  0  0  0  0  0
   -0.2536   -1.6363    1.4635 H   0  0  0  0  0  0  0  0  0  0  0  0
   -0.5031   -3.2725    0.7500 H   0  0  0  0  0  0  0  0  0  0  0  0
   -5.0563   -0.6177    2.0826 H   0  0  0  0  0  0  0  0  0  0  0  0
   -3.5982    0.0982    2.8324 H   0  0  0  0  0  0  0  0  0  0  0  0
   -3.9393    2.1866    1.5433 H   0  0  0  0  0  0  0  0  0  0  0  0
   -5.3986    1.5108    0.7981 H   0  0  0  0  0  0  0  0  0  0  0  0
   -5.3571    1.8301    2.5408 H   0  0  0  0  0  0  0  0  0  0  0  0
   -3.9854    0.5610   -1.4980 H   0  0  0  0  0  0  0  0  0  0  0  0
   -3.5512    2.2687   -1.8214 H   0  0  0  0  0  0  0  0  0  0  0  0
   -3.0606    0.9724   -3.8365 H   0  0  0  0  0  0  0  0  0  0  0  0
   -1.5215    1.4326   -3.0832 H   0  0  0  0  0  0  0  0  0  0  0  0
   -2.1267   -0.2165   -2.9140 H   0  0  0  0  0  0  0  0  0  0  0  0
  1  2  1  0  0  0  0
  2  3  1  0  0  0  0
  3  4  2  0  0  0  0
  4  5  2  0  0  0  0
  4  6  2  0  0  0  0
  6  7  1  0  0  0  0
  7  8  1  0  0  0  0
  4  9  1  0  0  0  0
  9 10  1  0  0  0  0
 10 11  1  0  0  0  0
 11 12  1  0  0  0  0
 12 13  2  0  0  0  0
 12 14  1  0  0  0  0
 14 15  1  0  0  0  0
 15 16  1  0  0  0  0
 12 17  2  0  0  0  0
 17 18  1  0  0  0  0
 18 19  1  0  0  0  0
  1 20  1  0  0  0  0
  1 21  1  0  0  0  0
  1 22  1  0  0  0  0
  2 23  1  0  0  0  0
  2 24  1  0  0  0  0
  7 25  1  0  0  0  0
  7 26  1  0  0  0  0
  8 27  1  0  0  0  0
  8 28  1  0  0  0  0
  8 29  1  0  0  0  0
 10 30  1  0  0  0  0
 10 31  1  0  0  0  0
 15 32  1  0  0  0  0
 15 33  1  0  0  0  0
 16 34  1  0  0  0  0
 16 35  1  0  0  0  0
 16 36  1  0  0  0  0
 18 37  1  0  0  0  0
 18 38  1  0  0  0  0
 19 39  1  0  0  0  0
 19 40  1  0  0  0  0
 19 41  1  0  0  0  0
M  END
