 xtb: 6.7.1 (edcfbbe)
          04092505213D

 41 40  0     0  0            999 V2000
    3.5616    1.6195    2.2892 C   0  0  0  0  0  0  0  0  0  0  0  0
    2.6045    1.6362    1.1160 C   0  0  0  0  0  0  0  0  0  0  0  0
    1.6717    0.5261    1.2052 O   0  0  0  0  0  0  0  0  0  0  0  0
    1.8582   -0.8263    0.4243 P   0  0  0  0  0  0  0  0  0  0  0  0
    0.4417   -2.1122    0.8379 S   0  0  0  0  0  0  0  0  0  0  0  0
    3.3308   -1.2669    0.8162 O   0  0  0  0  0  0  0  0  0  0  0  0
    3.8878   -2.5122    0.3462 C   0  0  0  0  0  0  0  0  0  0  0  0
    5.1272   -2.8038    1.1674 C   0  0  0  0  0  0  0  0  0  0  0  0
    2.0836   -0.3314   -1.6407 S   0  0  0  0  0  0  0  0  0  0  0  0
    0.3366   -0.1573   -2.0416 C   0  0  0  0  0  0  0  0  0  0  0  0
   -0.4098    1.2490   -1.1546 S   0  0  0  0  0  0  0  0  0  0  0  0
   -2.3462    0.4507   -0.7391 P   0  0  0  0  0  0  0  0  0  0  0  0
   -2.6296   -1.4353   -1.1615 S   0  0  0  0  0  0  0  0  0  0  0  0
   -3.3375    1.3677   -1.5448 O   0  0  0  0  0  0  0  0  0  0  0  0
   -3.3521    2.8159   -1.4592 C   0  0  0  0  0  0  0  0  0  0  0  0
   -4.3747    3.2892   -0.4471 C   0  0  0  0  0  0  0  0  0  0  0  0
   -2.6138    0.9001    0.7635 O   0  0  0  0  0  0  0  0  0  0  0  0
   -1.9793    0.2621    1.8856 C   0  0  0  0  0  0  0  0  0  0  0  0
   -2.6585    0.7612    3.1439 C   0  0  0  0  0  0  0  0  0  0  0  0
    3.0082    1.6445    3.2238 H   0  0  0  0  0  0  0  0  0  0  0  0
    4.1685    0.7185    2.2656 H   0  0  0  0  0  0  0  0  0  0  0  0
    4.2077    2.4898    2.2310 H   0  0  0  0  0  0  0  0  0  0  0  0
    3.1388    1.5737    0.1643 H   0  0  0  0  0  0  0  0  0  0  0  0
    1.9707    2.5248    1.1230 H   0  0  0  0  0  0  0  0  0  0  0  0
    3.1332   -3.2970    0.4627 H   0  0  0  0  0  0  0  0  0  0  0  0
    4.1267   -2.4001   -0.7147 H   0  0  0  0  0  0  0  0  0  0  0  0
    4.8666   -2.8919    2.2184 H   0  0  0  0  0  0  0  0  0  0  0  0
    5.5661   -3.7365    0.8288 H   0  0  0  0  0  0  0  0  0  0  0  0
    5.8501   -2.0023    1.0472 H   0  0  0  0  0  0  0  0  0  0  0  0
   -0.2062   -1.0668   -1.7661 H   0  0  0  0  0  0  0  0  0  0  0  0
    0.2828    0.0252   -3.1120 H   0  0  0  0  0  0  0  0  0  0  0  0
   -2.3469    3.1642   -1.2047 H   0  0  0  0  0  0  0  0  0  0  0  0
   -3.6109    3.1405   -2.4685 H   0  0  0  0  0  0  0  0  0  0  0  0
   -4.1072    2.9480    0.5490 H   0  0  0  0  0  0  0  0  0  0  0  0
   -4.4087    4.3742   -0.4591 H   0  0  0  0  0  0  0  0  0  0  0  0
   -5.3557    2.8961   -0.6992 H   0  0  0  0  0  0  0  0  0  0  0  0
   -2.0749   -0.8233    1.7761 H   0  0  0  0  0  0  0  0  0  0  0  0
   -0.9142    0.5157    1.8773 H   0  0  0  0  0  0  0  0  0  0  0  0
   -2.1967    0.2895    4.0049 H   0  0  0  0  0  0  0  0  0  0  0  0
   -2.5516    1.8393    3.2219 H   0  0  0  0  0  0  0  0  0  0  0  0
   -3.7148    0.5085    3.1200 H   0  0  0  0  0  0  0  0  0  0  0  0
  1  2  1  0  0  0  0
  2  3  1  0  0  0  0
  3  4  2  0  0  0  0
  4  5  2  0  0  0  0
  4  6  2  0  0  0  0
  6  7  1  0  0  0  0
  7  8  1  0  0  0  0
  4  9  1  0  0  0  0
  9 10  1  0  0  0  0
 10 11  1  0  0  0  0
 11 12  1  0  0  0  0
 12 13  2  0  0  0  0
 12 14  2  0  0  0  0
 14 15  1  0  0  0  0
 15 16  1  0  0  0  0
 12 17  2  0  0  0  0
 17 18  1  0  0  0  0
 18 19  1  0  0  0  0
  1 20  1  0  0  0  0
  1 21  1  0  0  0  0
  1 22  1  0  0  0  0
  2 23  1  0  0  0  0
  2 24  1  0  0  0  0
  7 25  1  0  0  0  0
  7 26  1  0  0  0  0
  8 27  1  0  0  0  0
  8 28  1  0  0  0  0
  8 29  1  0  0  0  0
 10 30  1  0  0  0  0
 10 31  1  0  0  0  0
 15 32  1  0  0  0  0
 15 33  1  0  0  0  0
 16 34  1  0  0  0  0
 16 35  1  0  0  0  0
 16 36  1  0  0  0  0
 18 37  1  0  0  0  0
 18 38  1  0  0  0  0
 19 39  1  0  0  0  0
 19 40  1  0  0  0  0
 19 41  1  0  0  0  0
M  END
