 xtb: 6.7.1 (edcfbbe)
          04092505213D

 41 40  0     0  0            999 V2000
    5.5627    0.6466    0.4007 C   0  0  0  0  0  0  0  0  0  0  0  0
    4.5748    1.4211   -0.4469 C   0  0  0  0  0  0  0  0  0  0  0  0
    3.5077    0.5744   -0.9201 O   0  0  0  0  0  0  0  0  0  0  0  0
    2.2669    0.1754   -0.0243 P   0  0  0  0  0  0  0  0  0  0  0  0
    1.7410    1.4990    1.3233 S   0  0  0  0  0  0  0  0  0  0  0  0
    2.6318   -1.2646    0.5483 O   0  0  0  0  0  0  0  0  0  0  0  0
    2.2259   -1.7542    1.8448 C   0  0  0  0  0  0  0  0  0  0  0  0
    3.2852   -1.4670    2.8901 C   0  0  0  0  0  0  0  0  0  0  0  0
    0.9775   -0.2283   -1.6656 S   0  0  0  0  0  0  0  0  0  0  0  0
   -0.0514   -1.5070   -0.8801 C   0  0  0  0  0  0  0  0  0  0  0  0
   -1.0128   -0.8895    0.5162 S   0  0  0  0  0  0  0  0  0  0  0  0
   -2.5600    0.0391   -0.6288 P   0  0  0  0  0  0  0  0  0  0  0  0
   -2.9705   -0.8422   -2.3283 S   0  0  0  0  0  0  0  0  0  0  0  0
   -2.1544    1.5276   -0.9348 O   0  0  0  0  0  0  0  0  0  0  0  0
   -1.5318    2.5083   -0.0718 C   0  0  0  0  0  0  0  0  0  0  0  0
   -2.0964    2.5473    1.3305 C   0  0  0  0  0  0  0  0  0  0  0  0
   -3.7461    0.2036    0.4095 O   0  0  0  0  0  0  0  0  0  0  0  0
   -4.2487   -0.8298    1.2776 C   0  0  0  0  0  0  0  0  0  0  0  0
   -4.6421   -2.0875    0.5317 C   0  0  0  0  0  0  0  0  0  0  0  0
    5.9124   -0.2285   -0.1404 H   0  0  0  0  0  0  0  0  0  0  0  0
    6.4077    1.2847    0.6396 H   0  0  0  0  0  0  0  0  0  0  0  0
    5.0880    0.3250    1.3251 H   0  0  0  0  0  0  0  0  0  0  0  0
    5.0364    1.8011   -1.3596 H   0  0  0  0  0  0  0  0  0  0  0  0
    4.1382    2.2500    0.1208 H   0  0  0  0  0  0  0  0  0  0  0  0
    1.2733   -1.2954    2.1255 H   0  0  0  0  0  0  0  0  0  0  0  0
    2.0906   -2.8280    1.7040 H   0  0  0  0  0  0  0  0  0  0  0  0
    4.2448   -1.8682    2.5751 H   0  0  0  0  0  0  0  0  0  0  0  0
    3.3749   -0.3941    3.0471 H   0  0  0  0  0  0  0  0  0  0  0  0
    2.9921   -1.9329    3.8254 H   0  0  0  0  0  0  0  0  0  0  0  0
    0.5776   -2.3160   -0.5189 H   0  0  0  0  0  0  0  0  0  0  0  0
   -0.7390   -1.8544   -1.6553 H   0  0  0  0  0  0  0  0  0  0  0  0
   -0.4585    2.2985   -0.0472 H   0  0  0  0  0  0  0  0  0  0  0  0
   -1.7021    3.4478   -0.5999 H   0  0  0  0  0  0  0  0  0  0  0  0
   -3.1720    2.6998    1.3044 H   0  0  0  0  0  0  0  0  0  0  0  0
   -1.8750    1.6201    1.8561 H   0  0  0  0  0  0  0  0  0  0  0  0
   -1.6251    3.3654    1.8671 H   0  0  0  0  0  0  0  0  0  0  0  0
   -3.4819   -1.0478    2.0262 H   0  0  0  0  0  0  0  0  0  0  0  0
   -5.1119   -0.3638    1.7558 H   0  0  0  0  0  0  0  0  0  0  0  0
   -3.7654   -2.5471    0.0778 H   0  0  0  0  0  0  0  0  0  0  0  0
   -5.0929   -2.7907    1.2245 H   0  0  0  0  0  0  0  0  0  0  0  0
   -5.3519   -1.8537   -0.2583 H   0  0  0  0  0  0  0  0  0  0  0  0
  1  2  1  0  0  0  0
  2  3  1  0  0  0  0
  3  4  2  0  0  0  0
  4  5  2  0  0  0  0
  4  6  2  0  0  0  0
  6  7  1  0  0  0  0
  7  8  1  0  0  0  0
  4  9  1  0  0  0  0
  9 10  1  0  0  0  0
 10 11  1  0  0  0  0
 11 12  1  0  0  0  0
 12 13  2  0  0  0  0
 12 14  2  0  0  0  0
 14 15  1  0  0  0  0
 15 16  1  0  0  0  0
 12 17  2  0  0  0  0
 17 18  1  0  0  0  0
 18 19  1  0  0  0  0
  1 20  1  0  0  0  0
  1 21  1  0  0  0  0
  1 22  1  0  0  0  0
  2 23  1  0  0  0  0
  2 24  1  0  0  0  0
  7 25  1  0  0  0  0
  7 26  1  0  0  0  0
  8 27  1  0  0  0  0
  8 28  1  0  0  0  0
  8 29  1  0  0  0  0
 10 30  1  0  0  0  0
 10 31  1  0  0  0  0
 15 32  1  0  0  0  0
 15 33  1  0  0  0  0
 16 34  1  0  0  0  0
 16 35  1  0  0  0  0
 16 36  1  0  0  0  0
 18 37  1  0  0  0  0
 18 38  1  0  0  0  0
 19 39  1  0  0  0  0
 19 40  1  0  0  0  0
 19 41  1  0  0  0  0
M  END
