 xtb: 6.7.1 (edcfbbe)
          04092507313D

 38 37  0     0  0            999 V2000
    0.8932   -3.8175   -1.5966 C   0  0  0  0  0  0  0  0  0  0  0  0
    1.8440   -3.5565   -0.4391 C   0  0  0  0  0  0  0  0  0  0  0  0
    1.7461   -2.1918    0.0080 O   0  0  0  0  0  0  0  0  0  0  0  0
    2.4535   -1.2724   -0.6201 C   0  0  0  0  0  0  0  0  0  0  0  0
    3.2335   -1.4894   -1.5180 O   0  0  0  0  0  0  0  0  0  0  0  0
    2.1432    0.1088   -0.0726 C   0  0  0  0  0  0  0  0  0  0  0  0
    1.0987    0.7874   -0.9702 C   0  0  0  0  0  0  0  0  0  0  0  0
    1.5521    1.0829   -1.9185 H   0  0  0  0  0  0  0  0  0  0  0  0
    0.5179    1.9935   -0.2564 C   0  0  0  0  0  0  0  0  0  0  0  0
   -0.6376    2.0179    0.1237 O   0  0  0  0  0  0  0  0  0  0  0  0
    1.3940    2.9352   -0.0764 O   0  0  0  0  0  0  0  0  0  0  0  0
    0.9912    4.1291    0.6357 C   0  0  0  0  0  0  0  0  0  0  0  0
    0.3336    5.1241   -0.3052 C   0  0  0  0  0  0  0  0  0  0  0  0
   -0.2966   -0.2982   -1.4194 S   0  0  0  0  0  0  0  0  0  0  0  0
   -1.3522   -0.3776    0.4102 P   0  0  0  0  0  0  0  0  0  0  0  0
   -0.5905   -0.1080    2.2088 S   0  0  0  0  0  0  0  0  0  0  0  0
   -2.8113    0.2448    0.2097 O   0  0  0  0  0  0  0  0  0  0  0  0
   -3.2887    1.4650    0.7748 C   0  0  0  0  0  0  0  0  0  0  0  0
   -1.7176   -1.9206    0.1559 O   0  0  0  0  0  0  0  0  0  0  0  0
   -2.5069   -2.6554    1.0949 C   0  0  0  0  0  0  0  0  0  0  0  0
   -0.1178   -3.5278   -1.3200 H   0  0  0  0  0  0  0  0  0  0  0  0
    1.1932   -3.2364   -2.4655 H   0  0  0  0  0  0  0  0  0  0  0  0
    0.9124   -4.8725   -1.8480 H   0  0  0  0  0  0  0  0  0  0  0  0
    2.8792   -3.7496   -0.7351 H   0  0  0  0  0  0  0  0  0  0  0  0
    1.5797   -4.1486    0.4373 H   0  0  0  0  0  0  0  0  0  0  0  0
    3.0486    0.7153   -0.0691 H   0  0  0  0  0  0  0  0  0  0  0  0
    1.7561   -0.0017    0.9420 H   0  0  0  0  0  0  0  0  0  0  0  0
    0.3123    3.8397    1.4420 H   0  0  0  0  0  0  0  0  0  0  0  0
    1.9230    4.5202    1.0434 H   0  0  0  0  0  0  0  0  0  0  0  0
    1.0055    5.3665   -1.1236 H   0  0  0  0  0  0  0  0  0  0  0  0
   -0.5857    4.7093   -0.7118 H   0  0  0  0  0  0  0  0  0  0  0  0
    0.0973    6.0296    0.2436 H   0  0  0  0  0  0  0  0  0  0  0  0
   -4.3502    1.3137    0.9584 H   0  0  0  0  0  0  0  0  0  0  0  0
   -3.1290    2.2788    0.0710 H   0  0  0  0  0  0  0  0  0  0  0  0
   -2.7646    1.6774    1.7077 H   0  0  0  0  0  0  0  0  0  0  0  0
   -2.4170   -3.6996    0.8062 H   0  0  0  0  0  0  0  0  0  0  0  0
   -3.5465   -2.3328    1.0446 H   0  0  0  0  0  0  0  0  0  0  0  0
   -2.1216   -2.5059    2.1058 H   0  0  0  0  0  0  0  0  0  0  0  0
  1  2  1  0  0  0  0
  2  3  1  0  0  0  0
  3  4  1  0  0  0  0
  4  5  2  0  0  0  0
  4  6  1  0  0  0  0
  6  7  1  0  0  0  0
  7  8  1  0  0  0  0
  7  9  1  0  0  0  0
  9 10  2  0  0  0  0
  9 11  4  0  0  0  0
 11 12  1  0  0  0  0
 12 13  1  0  0  0  0
  7 14  1  0  0  0  0
 14 15  1  0  0  0  0
 15 16  2  0  0  0  0
 15 17  2  0  0  0  0
 17 18  1  0  0  0  0
 15 19  1  0  0  0  0
 19 20  1  0  0  0  0
  1 21  1  0  0  0  0
  1 22  1  0  0  0  0
  1 23  1  0  0  0  0
  2 24  1  0  0  0  0
  2 25  1  0  0  0  0
  6 26  1  0  0  0  0
  6 27  1  0  0  0  0
 12 28  1  0  0  0  0
 12 29  1  0  0  0  0
 13 30  1  0  0  0  0
 13 31  1  0  0  0  0
 13 32  1  0  0  0  0
 18 33  1  0  0  0  0
 18 34  1  0  0  0  0
 18 35  1  0  0  0  0
 20 36  1  0  0  0  0
 20 37  1  0  0  0  0
 20 38  1  0  0  0  0
M  END
