 xtb: 6.7.1 (edcfbbe)
          04092507313D

 38 37  0     0  0            999 V2000
    5.8899   -2.1781   -1.0796 C   0  0  0  0  0  0  0  0  0  0  0  0
    4.8801   -1.0528   -1.1994 C   0  0  0  0  0  0  0  0  0  0  0  0
    3.5860   -1.5647   -0.8236 O   0  0  0  0  0  0  0  0  0  0  0  0
    2.5134   -0.9613   -1.2863 C   0  0  0  0  0  0  0  0  0  0  0  0
    2.5280    0.0112   -2.0091 O   0  0  0  0  0  0  0  0  0  0  0  0
    1.2445   -1.6525   -0.8185 C   0  0  0  0  0  0  0  0  0  0  0  0
    0.2167   -0.5989   -0.4338 C   0  0  0  0  0  0  0  0  0  0  0  0
    0.1244    0.1376   -1.2448 H   0  0  0  0  0  0  0  0  0  0  0  0
    0.5850    0.1803    0.8121 C   0  0  0  0  0  0  0  0  0  0  0  0
   -0.2575    0.6006    1.5799 O   0  0  0  0  0  0  0  0  0  0  0  0
    1.8745    0.3429    0.9445 O   0  0  0  0  0  0  0  0  0  0  0  0
    2.3511    1.1732    2.0275 C   0  0  0  0  0  0  0  0  0  0  0  0
    2.3560    2.6351    1.6147 C   0  0  0  0  0  0  0  0  0  0  0  0
   -1.4306   -1.3255   -0.1587 S   0  0  0  0  0  0  0  0  0  0  0  0
   -2.5100    0.4771    0.1818 P   0  0  0  0  0  0  0  0  0  0  0  0
   -1.7939    2.1191   -0.6096 S   0  0  0  0  0  0  0  0  0  0  0  0
   -3.9329    0.0690   -0.4501 O   0  0  0  0  0  0  0  0  0  0  0  0
   -4.1037   -0.0980   -1.8596 C   0  0  0  0  0  0  0  0  0  0  0  0
   -2.9461    0.5922    1.6941 O   0  0  0  0  0  0  0  0  0  0  0  0
   -3.5988   -0.4875    2.3908 C   0  0  0  0  0  0  0  0  0  0  0  0
    5.6363   -2.9848   -1.7608 H   0  0  0  0  0  0  0  0  0  0  0  0
    6.8771   -1.8011   -1.3250 H   0  0  0  0  0  0  0  0  0  0  0  0
    5.8950   -2.5647   -0.0651 H   0  0  0  0  0  0  0  0  0  0  0  0
    4.8167   -0.6625   -2.2197 H   0  0  0  0  0  0  0  0  0  0  0  0
    5.1195   -0.2257   -0.5247 H   0  0  0  0  0  0  0  0  0  0  0  0
    1.4755   -2.3142    0.0145 H   0  0  0  0  0  0  0  0  0  0  0  0
    0.8504   -2.2447   -1.6466 H   0  0  0  0  0  0  0  0  0  0  0  0
    1.7058    1.0147    2.8957 H   0  0  0  0  0  0  0  0  0  0  0  0
    3.3584    0.8065    2.2241 H   0  0  0  0  0  0  0  0  0  0  0  0
    2.7741    3.2350    2.4160 H   0  0  0  0  0  0  0  0  0  0  0  0
    2.9494    2.7694    0.7140 H   0  0  0  0  0  0  0  0  0  0  0  0
    1.3404    2.9717    1.4131 H   0  0  0  0  0  0  0  0  0  0  0  0
   -5.1777   -0.1379   -2.0227 H   0  0  0  0  0  0  0  0  0  0  0  0
   -3.6303   -1.0252   -2.1829 H   0  0  0  0  0  0  0  0  0  0  0  0
   -3.6689    0.7493   -2.3929 H   0  0  0  0  0  0  0  0  0  0  0  0
   -3.0093   -1.4002    2.3014 H   0  0  0  0  0  0  0  0  0  0  0  0
   -4.5948   -0.6426    1.9799 H   0  0  0  0  0  0  0  0  0  0  0  0
   -3.6496   -0.1630    3.4268 H   0  0  0  0  0  0  0  0  0  0  0  0
  1  2  1  0  0  0  0
  2  3  1  0  0  0  0
  3  4  1  0  0  0  0
  4  5  2  0  0  0  0
  4  6  1  0  0  0  0
  6  7  1  0  0  0  0
  7  8  1  0  0  0  0
  7  9  1  0  0  0  0
  9 10  2  0  0  0  0
  9 11  4  0  0  0  0
 11 12  1  0  0  0  0
 12 13  1  0  0  0  0
  7 14  1  0  0  0  0
 14 15  1  0  0  0  0
 15 16  2  0  0  0  0
 15 17  1  0  0  0  0
 17 18  1  0  0  0  0
 15 19  2  0  0  0  0
 19 20  1  0  0  0  0
  1 21  1  0  0  0  0
  1 22  1  0  0  0  0
  1 23  1  0  0  0  0
  2 24  1  0  0  0  0
  2 25  1  0  0  0  0
  6 26  1  0  0  0  0
  6 27  1  0  0  0  0
 12 28  1  0  0  0  0
 12 29  1  0  0  0  0
 13 30  1  0  0  0  0
 13 31  1  0  0  0  0
 13 32  1  0  0  0  0
 18 33  1  0  0  0  0
 18 34  1  0  0  0  0
 18 35  1  0  0  0  0
 20 36  1  0  0  0  0
 20 37  1  0  0  0  0
 20 38  1  0  0  0  0
M  END
