 xtb: 6.7.1 (edcfbbe)
          04092505213D

 41 40  0     0  0            999 V2000
    5.8396   -0.1458   -0.1688 C   0  0  0  0  0  0  0  0  0  0  0  0
    4.5950    0.3787   -0.8546 C   0  0  0  0  0  0  0  0  0  0  0  0
    3.4541   -0.2107   -0.2023 O   0  0  0  0  0  0  0  0  0  0  0  0
    1.9774    0.1885   -0.6738 P   0  0  0  0  0  0  0  0  0  0  0  0
    1.7145   -0.0119   -2.6022 S   0  0  0  0  0  0  0  0  0  0  0  0
    1.7628    1.6994   -0.2260 O   0  0  0  0  0  0  0  0  0  0  0  0
    1.4514    2.1529    1.1108 C   0  0  0  0  0  0  0  0  0  0  0  0
    2.4792    1.7202    2.1358 C   0  0  0  0  0  0  0  0  0  0  0  0
    0.9651   -1.0876    0.6484 S   0  0  0  0  0  0  0  0  0  0  0  0
   -0.1572   -1.9356   -0.5139 C   0  0  0  0  0  0  0  0  0  0  0  0
   -1.8608   -1.9718    0.0802 S   0  0  0  0  0  0  0  0  0  0  0  0
   -2.1733    0.1300    0.2249 P   0  0  0  0  0  0  0  0  0  0  0  0
   -1.3328    1.2506   -1.1462 S   0  0  0  0  0  0  0  0  0  0  0  0
   -1.7095    0.5345    1.6759 O   0  0  0  0  0  0  0  0  0  0  0  0
   -2.2142   -0.1218    2.8736 C   0  0  0  0  0  0  0  0  0  0  0  0
   -1.0491   -0.6592    3.6786 C   0  0  0  0  0  0  0  0  0  0  0  0
   -3.7532    0.2572    0.3494 O   0  0  0  0  0  0  0  0  0  0  0  0
   -4.6315    0.3544   -0.7862 C   0  0  0  0  0  0  0  0  0  0  0  0
   -4.6041   -0.8901   -1.6494 C   0  0  0  0  0  0  0  0  0  0  0  0
    5.8340    0.1340    0.8806 H   0  0  0  0  0  0  0  0  0  0  0  0
    5.8711   -1.2287   -0.2430 H   0  0  0  0  0  0  0  0  0  0  0  0
    6.7160    0.2747   -0.6510 H   0  0  0  0  0  0  0  0  0  0  0  0
    4.5674    0.0999   -1.9133 H   0  0  0  0  0  0  0  0  0  0  0  0
    4.5199    1.4690   -0.7820 H   0  0  0  0  0  0  0  0  0  0  0  0
    1.4168    3.2384    1.0015 H   0  0  0  0  0  0  0  0  0  0  0  0
    0.4539    1.7856    1.3705 H   0  0  0  0  0  0  0  0  0  0  0  0
    3.4679    2.0725    1.8518 H   0  0  0  0  0  0  0  0  0  0  0  0
    2.2135    2.1443    3.0992 H   0  0  0  0  0  0  0  0  0  0  0  0
    2.4992    0.6343    2.2190 H   0  0  0  0  0  0  0  0  0  0  0  0
    0.1528   -2.9736   -0.6062 H   0  0  0  0  0  0  0  0  0  0  0  0
   -0.1018   -1.4217   -1.4781 H   0  0  0  0  0  0  0  0  0  0  0  0
   -2.7632    0.6460    3.4204 H   0  0  0  0  0  0  0  0  0  0  0  0
   -2.8979   -0.9212    2.5789 H   0  0  0  0  0  0  0  0  0  0  0  0
   -0.3646    0.1455    3.9302 H   0  0  0  0  0  0  0  0  0  0  0  0
   -1.4285   -1.1068    4.5913 H   0  0  0  0  0  0  0  0  0  0  0  0
   -0.5071   -1.4098    3.1082 H   0  0  0  0  0  0  0  0  0  0  0  0
   -5.6135    0.5126   -0.3379 H   0  0  0  0  0  0  0  0  0  0  0  0
   -4.3421    1.2335   -1.3698 H   0  0  0  0  0  0  0  0  0  0  0  0
   -4.7763   -1.7767   -1.0444 H   0  0  0  0  0  0  0  0  0  0  0  0
   -5.3757   -0.8150   -2.4090 H   0  0  0  0  0  0  0  0  0  0  0  0
   -3.6367   -0.9810   -2.1417 H   0  0  0  0  0  0  0  0  0  0  0  0
  1  2  1  0  0  0  0
  2  3  1  0  0  0  0
  3  4  1  0  0  0  0
  4  5  2  0  0  0  0
  4  6  2  0  0  0  0
  6  7  1  0  0  0  0
  7  8  1  0  0  0  0
  4  9  1  0  0  0  0
  9 10  1  0  0  0  0
 10 11  1  0  0  0  0
 11 12  1  0  0  0  0
 12 13  2  0  0  0  0
 12 14  2  0  0  0  0
 14 15  1  0  0  0  0
 15 16  1  0  0  0  0
 12 17  2  0  0  0  0
 17 18  1  0  0  0  0
 18 19  1  0  0  0  0
  1 20  1  0  0  0  0
  1 21  1  0  0  0  0
  1 22  1  0  0  0  0
  2 23  1  0  0  0  0
  2 24  1  0  0  0  0
  7 25  1  0  0  0  0
  7 26  1  0  0  0  0
  8 27  1  0  0  0  0
  8 28  1  0  0  0  0
  8 29  1  0  0  0  0
 10 30  1  0  0  0  0
 10 31  1  0  0  0  0
 15 32  1  0  0  0  0
 15 33  1  0  0  0  0
 16 34  1  0  0  0  0
 16 35  1  0  0  0  0
 16 36  1  0  0  0  0
 18 37  1  0  0  0  0
 18 38  1  0  0  0  0
 19 39  1  0  0  0  0
 19 40  1  0  0  0  0
 19 41  1  0  0  0  0
M  END
