 xtb: 6.7.1 (edcfbbe)
          04092505213D

 41 40  0     0  0            999 V2000
    5.5867   -0.5676    0.4954 C   0  0  0  0  0  0  0  0  0  0  0  0
    4.3811   -1.3333   -0.0089 C   0  0  0  0  0  0  0  0  0  0  0  0
    3.6887   -0.5843   -1.0411 O   0  0  0  0  0  0  0  0  0  0  0  0
    2.4366    0.3269   -0.7568 P   0  0  0  0  0  0  0  0  0  0  0  0
    1.8349    1.1819   -2.4109 S   0  0  0  0  0  0  0  0  0  0  0  0
    2.9602    1.2777    0.4001 O   0  0  0  0  0  0  0  0  0  0  0  0
    2.1109    2.1975    1.1173 C   0  0  0  0  0  0  0  0  0  0  0  0
    1.9347    1.7153    2.5446 C   0  0  0  0  0  0  0  0  0  0  0  0
    1.0233   -0.9386    0.2159 S   0  0  0  0  0  0  0  0  0  0  0  0
   -0.0130   -1.3144   -1.2353 C   0  0  0  0  0  0  0  0  0  0  0  0
   -1.6791   -1.7904   -0.7574 S   0  0  0  0  0  0  0  0  0  0  0  0
   -2.4178    0.0888   -0.0431 P   0  0  0  0  0  0  0  0  0  0  0  0
   -1.3280    1.6723   -0.4243 S   0  0  0  0  0  0  0  0  0  0  0  0
   -2.7064   -0.1432    1.5016 O   0  0  0  0  0  0  0  0  0  0  0  0
   -1.6596   -0.1013    2.4899 C   0  0  0  0  0  0  0  0  0  0  0  0
   -2.3140   -0.0557    3.8555 C   0  0  0  0  0  0  0  0  0  0  0  0
   -3.8587    0.2253   -0.6512 O   0  0  0  0  0  0  0  0  0  0  0  0
   -4.8062   -0.8462   -0.8930 C   0  0  0  0  0  0  0  0  0  0  0  0
   -5.0534   -1.7022    0.3292 C   0  0  0  0  0  0  0  0  0  0  0  0
    6.1139   -1.1758    1.2237 H   0  0  0  0  0  0  0  0  0  0  0  0
    6.2533   -0.3377   -0.3312 H   0  0  0  0  0  0  0  0  0  0  0  0
    5.2753    0.3636    0.9604 H   0  0  0  0  0  0  0  0  0  0  0  0
    3.6788   -1.5503    0.8012 H   0  0  0  0  0  0  0  0  0  0  0  0
    4.6770   -2.2612   -0.5012 H   0  0  0  0  0  0  0  0  0  0  0  0
    2.6253    3.1596    1.0807 H   0  0  0  0  0  0  0  0  0  0  0  0
    1.1505    2.2906    0.6010 H   0  0  0  0  0  0  0  0  0  0  0  0
    1.4682    0.7325    2.5541 H   0  0  0  0  0  0  0  0  0  0  0  0
    2.9002    1.6526    3.0379 H   0  0  0  0  0  0  0  0  0  0  0  0
    1.3028    2.4171    3.0791 H   0  0  0  0  0  0  0  0  0  0  0  0
    0.4049   -2.1654   -1.7682 H   0  0  0  0  0  0  0  0  0  0  0  0
   -0.0390   -0.4234   -1.8691 H   0  0  0  0  0  0  0  0  0  0  0  0
   -1.0356   -0.9927    2.3726 H   0  0  0  0  0  0  0  0  0  0  0  0
   -1.0479    0.7879    2.3065 H   0  0  0  0  0  0  0  0  0  0  0  0
   -2.9298   -0.9378    4.0026 H   0  0  0  0  0  0  0  0  0  0  0  0
   -1.5428   -0.0243    4.6179 H   0  0  0  0  0  0  0  0  0  0  0  0
   -2.9388    0.8288    3.9393 H   0  0  0  0  0  0  0  0  0  0  0  0
   -5.7056   -0.3118   -1.2025 H   0  0  0  0  0  0  0  0  0  0  0  0
   -4.4285   -1.4496   -1.7221 H   0  0  0  0  0  0  0  0  0  0  0  0
   -4.1496   -2.2479    0.5938 H   0  0  0  0  0  0  0  0  0  0  0  0
   -5.3529   -1.0815    1.1693 H   0  0  0  0  0  0  0  0  0  0  0  0
   -5.8424   -2.4141    0.1071 H   0  0  0  0  0  0  0  0  0  0  0  0
  1  2  1  0  0  0  0
  2  3  1  0  0  0  0
  3  4  2  0  0  0  0
  4  5  2  0  0  0  0
  4  6  2  0  0  0  0
  6  7  1  0  0  0  0
  7  8  1  0  0  0  0
  4  9  1  0  0  0  0
  9 10  1  0  0  0  0
 10 11  1  0  0  0  0
 11 12  1  0  0  0  0
 12 13  2  0  0  0  0
 12 14  2  0  0  0  0
 14 15  1  0  0  0  0
 15 16  1  0  0  0  0
 12 17  2  0  0  0  0
 17 18  1  0  0  0  0
 18 19  1  0  0  0  0
  1 20  1  0  0  0  0
  1 21  1  0  0  0  0
  1 22  1  0  0  0  0
  2 23  1  0  0  0  0
  2 24  1  0  0  0  0
  7 25  1  0  0  0  0
  7 26  1  0  0  0  0
  8 27  1  0  0  0  0
  8 28  1  0  0  0  0
  8 29  1  0  0  0  0
 10 30  1  0  0  0  0
 10 31  1  0  0  0  0
 15 32  1  0  0  0  0
 15 33  1  0  0  0  0
 16 34  1  0  0  0  0
 16 35  1  0  0  0  0
 16 36  1  0  0  0  0
 18 37  1  0  0  0  0
 18 38  1  0  0  0  0
 19 39  1  0  0  0  0
 19 40  1  0  0  0  0
 19 41  1  0  0  0  0
M  END
