 xtb: 6.7.1 (edcfbbe)
          04092505203D

 41 40  0     0  0            999 V2000
    3.5210    1.9679   -0.8247 C   0  0  0  0  0  0  0  0  0  0  0  0
    2.9376    2.3326    0.5236 C   0  0  0  0  0  0  0  0  0  0  0  0
    1.7295    1.5903    0.8256 O   0  0  0  0  0  0  0  0  0  0  0  0
    1.6712    0.0270    1.0441 P   0  0  0  0  0  0  0  0  0  0  0  0
    0.2689   -0.5305    2.2935 S   0  0  0  0  0  0  0  0  0  0  0  0
    3.1485   -0.2565    1.5783 O   0  0  0  0  0  0  0  0  0  0  0  0
    3.4950   -1.4382    2.3163 C   0  0  0  0  0  0  0  0  0  0  0  0
    3.3718   -2.7004    1.4868 C   0  0  0  0  0  0  0  0  0  0  0  0
    1.6369   -0.8701   -0.8961 S   0  0  0  0  0  0  0  0  0  0  0  0
    0.1700   -1.9231   -0.7753 C   0  0  0  0  0  0  0  0  0  0  0  0
   -1.1710   -1.4662   -1.9269 S   0  0  0  0  0  0  0  0  0  0  0  0
   -2.0485    0.1165   -0.8717 P   0  0  0  0  0  0  0  0  0  0  0  0
   -3.5708    1.0400   -1.6855 S   0  0  0  0  0  0  0  0  0  0  0  0
   -0.8404    1.1030   -0.4771 O   0  0  0  0  0  0  0  0  0  0  0  0
   -0.5812    2.2723   -1.2762 C   0  0  0  0  0  0  0  0  0  0  0  0
   -0.0941    1.9155   -2.6667 C   0  0  0  0  0  0  0  0  0  0  0  0
   -2.3356   -0.6356    0.4922 O   0  0  0  0  0  0  0  0  0  0  0  0
   -3.1325   -0.0394    1.5391 C   0  0  0  0  0  0  0  0  0  0  0  0
   -4.5266   -0.6310    1.5313 C   0  0  0  0  0  0  0  0  0  0  0  0
    3.8036    0.9166   -0.8395 H   0  0  0  0  0  0  0  0  0  0  0  0
    2.8006    2.1489   -1.6174 H   0  0  0  0  0  0  0  0  0  0  0  0
    4.4042    2.5739   -1.0020 H   0  0  0  0  0  0  0  0  0  0  0  0
    2.6085    3.3728    0.5542 H   0  0  0  0  0  0  0  0  0  0  0  0
    3.6592    2.1509    1.3220 H   0  0  0  0  0  0  0  0  0  0  0  0
    4.5268   -1.2589    2.6219 H   0  0  0  0  0  0  0  0  0  0  0  0
    2.8506   -1.4958    3.1992 H   0  0  0  0  0  0  0  0  0  0  0  0
    2.3236   -2.9041    1.2727 H   0  0  0  0  0  0  0  0  0  0  0  0
    3.9124   -2.5947    0.5497 H   0  0  0  0  0  0  0  0  0  0  0  0
    3.7812   -3.5353    2.0465 H   0  0  0  0  0  0  0  0  0  0  0  0
   -0.2077   -1.8928    0.2491 H   0  0  0  0  0  0  0  0  0  0  0  0
    0.4554   -2.9291   -1.0706 H   0  0  0  0  0  0  0  0  0  0  0  0
   -1.5053    2.8560   -1.3359 H   0  0  0  0  0  0  0  0  0  0  0  0
    0.1670    2.8200   -0.7030 H   0  0  0  0  0  0  0  0  0  0  0  0
    0.7730    1.2605   -2.6177 H   0  0  0  0  0  0  0  0  0  0  0  0
   -0.8865    1.4026   -3.2125 H   0  0  0  0  0  0  0  0  0  0  0  0
    0.1659    2.8250   -3.1990 H   0  0  0  0  0  0  0  0  0  0  0  0
   -2.5968   -0.2689    2.4630 H   0  0  0  0  0  0  0  0  0  0  0  0
   -3.1616    1.0447    1.3971 H   0  0  0  0  0  0  0  0  0  0  0  0
   -4.4715   -1.7119    1.6229 H   0  0  0  0  0  0  0  0  0  0  0  0
   -5.0907   -0.2253    2.3649 H   0  0  0  0  0  0  0  0  0  0  0  0
   -5.0327   -0.3800    0.6012 H   0  0  0  0  0  0  0  0  0  0  0  0
  1  2  1  0  0  0  0
  2  3  1  0  0  0  0
  3  4  2  0  0  0  0
  4  5  2  0  0  0  0
  4  6  1  0  0  0  0
  6  7  1  0  0  0  0
  7  8  1  0  0  0  0
  4  9  1  0  0  0  0
  9 10  1  0  0  0  0
 10 11  1  0  0  0  0
 11 12  1  0  0  0  0
 12 13  2  0  0  0  0
 12 14  1  0  0  0  0
 14 15  1  0  0  0  0
 15 16  1  0  0  0  0
 12 17  2  0  0  0  0
 17 18  1  0  0  0  0
 18 19  1  0  0  0  0
  1 20  1  0  0  0  0
  1 21  1  0  0  0  0
  1 22  1  0  0  0  0
  2 23  1  0  0  0  0
  2 24  1  0  0  0  0
  7 25  1  0  0  0  0
  7 26  1  0  0  0  0
  8 27  1  0  0  0  0
  8 28  1  0  0  0  0
  8 29  1  0  0  0  0
 10 30  1  0  0  0  0
 10 31  1  0  0  0  0
 15 32  1  0  0  0  0
 15 33  1  0  0  0  0
 16 34  1  0  0  0  0
 16 35  1  0  0  0  0
 16 36  1  0  0  0  0
 18 37  1  0  0  0  0
 18 38  1  0  0  0  0
 19 39  1  0  0  0  0
 19 40  1  0  0  0  0
 19 41  1  0  0  0  0
M  END
