 xtb: 6.7.1 (edcfbbe)
          04092505213D

 41 40  0     0  0            999 V2000
    1.5957   -2.5022   -2.3960 C   0  0  0  0  0  0  0  0  0  0  0  0
    1.9039   -2.5031   -0.9114 C   0  0  0  0  0  0  0  0  0  0  0  0
    2.8629   -1.4767   -0.5881 O   0  0  0  0  0  0  0  0  0  0  0  0
    2.4506   -0.0227   -0.0993 P   0  0  0  0  0  0  0  0  0  0  0  0
    1.3006    1.0019   -1.3106 S   0  0  0  0  0  0  0  0  0  0  0  0
    3.8418    0.6884    0.0615 O   0  0  0  0  0  0  0  0  0  0  0  0
    4.8158    0.4782    1.1153 C   0  0  0  0  0  0  0  0  0  0  0  0
    5.1514   -0.9801    1.3365 C   0  0  0  0  0  0  0  0  0  0  0  0
    1.7146   -0.3297    1.8898 S   0  0  0  0  0  0  0  0  0  0  0  0
    0.0674    0.3749    1.7396 C   0  0  0  0  0  0  0  0  0  0  0  0
   -1.0297   -0.6817    0.7390 S   0  0  0  0  0  0  0  0  0  0  0  0
   -2.4052    0.8261    0.1295 P   0  0  0  0  0  0  0  0  0  0  0  0
   -1.7327    2.6639    0.1406 S   0  0  0  0  0  0  0  0  0  0  0  0
   -3.6301    0.6933    1.1106 O   0  0  0  0  0  0  0  0  0  0  0  0
   -4.3672   -0.5411    1.3055 C   0  0  0  0  0  0  0  0  0  0  0  0
   -5.6084   -0.5696    0.4378 C   0  0  0  0  0  0  0  0  0  0  0  0
   -2.9982    0.2797   -1.2359 O   0  0  0  0  0  0  0  0  0  0  0  0
   -2.2013    0.0629   -2.4196 C   0  0  0  0  0  0  0  0  0  0  0  0
   -2.0402   -1.4255   -2.6596 C   0  0  0  0  0  0  0  0  0  0  0  0
    1.1509   -1.5526   -2.6844 H   0  0  0  0  0  0  0  0  0  0  0  0
    2.5095   -2.6442   -2.9661 H   0  0  0  0  0  0  0  0  0  0  0  0
    0.9020   -3.3060   -2.6198 H   0  0  0  0  0  0  0  0  0  0  0  0
    2.3857   -3.4341   -0.6067 H   0  0  0  0  0  0  0  0  0  0  0  0
    0.9949   -2.3529   -0.3200 H   0  0  0  0  0  0  0  0  0  0  0  0
    5.6808    1.0436    0.7654 H   0  0  0  0  0  0  0  0  0  0  0  0
    4.4226    0.9301    2.0294 H   0  0  0  0  0  0  0  0  0  0  0  0
    5.9614   -1.0486    2.0562 H   0  0  0  0  0  0  0  0  0  0  0  0
    4.2854   -1.5102    1.7288 H   0  0  0  0  0  0  0  0  0  0  0  0
    5.4588   -1.4421    0.4022 H   0  0  0  0  0  0  0  0  0  0  0  0
    0.1149    1.3570    1.2609 H   0  0  0  0  0  0  0  0  0  0  0  0
   -0.3250    0.4473    2.7512 H   0  0  0  0  0  0  0  0  0  0  0  0
   -3.7073   -1.3853    1.0857 H   0  0  0  0  0  0  0  0  0  0  0  0
   -4.6240   -0.5379    2.3662 H   0  0  0  0  0  0  0  0  0  0  0  0
   -5.3347   -0.5491   -0.6134 H   0  0  0  0  0  0  0  0  0  0  0  0
   -6.1671   -1.4763    0.6476 H   0  0  0  0  0  0  0  0  0  0  0  0
   -6.2313    0.2945    0.6520 H   0  0  0  0  0  0  0  0  0  0  0  0
   -2.7530    0.5417   -3.2307 H   0  0  0  0  0  0  0  0  0  0  0  0
   -1.2329    0.5599   -2.3070 H   0  0  0  0  0  0  0  0  0  0  0  0
   -1.5045   -1.8840   -1.8317 H   0  0  0  0  0  0  0  0  0  0  0  0
   -3.0154   -1.8944   -2.7541 H   0  0  0  0  0  0  0  0  0  0  0  0
   -1.4783   -1.5762   -3.5755 H   0  0  0  0  0  0  0  0  0  0  0  0
  1  2  1  0  0  0  0
  2  3  1  0  0  0  0
  3  4  2  0  0  0  0
  4  5  2  0  0  0  0
  4  6  2  0  0  0  0
  6  7  1  0  0  0  0
  7  8  1  0  0  0  0
  4  9  1  0  0  0  0
  9 10  1  0  0  0  0
 10 11  1  0  0  0  0
 11 12  1  0  0  0  0
 12 13  2  0  0  0  0
 12 14  2  0  0  0  0
 14 15  1  0  0  0  0
 15 16  1  0  0  0  0
 12 17  2  0  0  0  0
 17 18  1  0  0  0  0
 18 19  1  0  0  0  0
  1 20  1  0  0  0  0
  1 21  1  0  0  0  0
  1 22  1  0  0  0  0
  2 23  1  0  0  0  0
  2 24  1  0  0  0  0
  7 25  1  0  0  0  0
  7 26  1  0  0  0  0
  8 27  1  0  0  0  0
  8 28  1  0  0  0  0
  8 29  1  0  0  0  0
 10 30  1  0  0  0  0
 10 31  1  0  0  0  0
 15 32  1  0  0  0  0
 15 33  1  0  0  0  0
 16 34  1  0  0  0  0
 16 35  1  0  0  0  0
 16 36  1  0  0  0  0
 18 37  1  0  0  0  0
 18 38  1  0  0  0  0
 19 39  1  0  0  0  0
 19 40  1  0  0  0  0
 19 41  1  0  0  0  0
M  END
