 xtb: 6.7.1 (edcfbbe)
          04092505213D

 41 40  0     0  0            999 V2000
    2.5670    2.6298   -1.0172 C   0  0  0  0  0  0  0  0  0  0  0  0
    3.7335    2.1894   -0.1579 C   0  0  0  0  0  0  0  0  0  0  0  0
    3.7020    0.7757    0.1131 O   0  0  0  0  0  0  0  0  0  0  0  0
    2.5012    0.0840    0.8923 P   0  0  0  0  0  0  0  0  0  0  0  0
    1.7188    1.1026    2.3641 S   0  0  0  0  0  0  0  0  0  0  0  0
    3.1549   -1.2556    1.4132 O   0  0  0  0  0  0  0  0  0  0  0  0
    3.9784   -2.1295    0.5955 C   0  0  0  0  0  0  0  0  0  0  0  0
    3.2357   -3.4115    0.2749 C   0  0  0  0  0  0  0  0  0  0  0  0
    1.1936   -0.5354   -0.6834 S   0  0  0  0  0  0  0  0  0  0  0  0
    0.0061   -1.3716    0.4032 C   0  0  0  0  0  0  0  0  0  0  0  0
   -1.2816   -0.2710    1.0325 S   0  0  0  0  0  0  0  0  0  0  0  0
   -2.3549   -0.1309   -0.8117 P   0  0  0  0  0  0  0  0  0  0  0  0
   -2.3848   -1.7526   -1.9029 S   0  0  0  0  0  0  0  0  0  0  0  0
   -1.6964    1.0338   -1.6443 O   0  0  0  0  0  0  0  0  0  0  0  0
   -1.5136    2.3863   -1.1630 C   0  0  0  0  0  0  0  0  0  0  0  0
   -2.6550    3.2782   -1.6067 C   0  0  0  0  0  0  0  0  0  0  0  0
   -3.7369    0.5121   -0.3636 O   0  0  0  0  0  0  0  0  0  0  0  0
   -4.5743    0.0255    0.7019 C   0  0  0  0  0  0  0  0  0  0  0  0
   -4.9017   -1.4466    0.5679 C   0  0  0  0  0  0  0  0  0  0  0  0
    2.6843    3.6769   -1.2770 H   0  0  0  0  0  0  0  0  0  0  0  0
    2.5157    2.0326   -1.9250 H   0  0  0  0  0  0  0  0  0  0  0  0
    1.6398    2.5052   -0.4581 H   0  0  0  0  0  0  0  0  0  0  0  0
    3.7274    2.7221    0.7975 H   0  0  0  0  0  0  0  0  0  0  0  0
    4.6895    2.3358   -0.6625 H   0  0  0  0  0  0  0  0  0  0  0  0
    4.2716   -1.5991   -0.3119 H   0  0  0  0  0  0  0  0  0  0  0  0
    4.8600   -2.3269    1.2074 H   0  0  0  0  0  0  0  0  0  0  0  0
    2.3883   -3.2160   -0.3783 H   0  0  0  0  0  0  0  0  0  0  0  0
    3.9138   -4.0940   -0.2277 H   0  0  0  0  0  0  0  0  0  0  0  0
    2.8782   -3.8759    1.1901 H   0  0  0  0  0  0  0  0  0  0  0  0
    0.5248   -1.7789    1.2694 H   0  0  0  0  0  0  0  0  0  0  0  0
   -0.4669   -2.1565   -0.1896 H   0  0  0  0  0  0  0  0  0  0  0  0
   -1.4209    2.3698   -0.0724 H   0  0  0  0  0  0  0  0  0  0  0  0
   -0.5690    2.7046   -1.6088 H   0  0  0  0  0  0  0  0  0  0  0  0
   -2.4530    4.2963   -1.2889 H   0  0  0  0  0  0  0  0  0  0  0  0
   -2.7463    3.2498   -2.6890 H   0  0  0  0  0  0  0  0  0  0  0  0
   -3.5908    2.9433   -1.1680 H   0  0  0  0  0  0  0  0  0  0  0  0
   -4.0679    0.2250    1.6505 H   0  0  0  0  0  0  0  0  0  0  0  0
   -5.4723    0.6412    0.6247 H   0  0  0  0  0  0  0  0  0  0  0  0
   -5.3373   -1.6512   -0.4073 H   0  0  0  0  0  0  0  0  0  0  0  0
   -3.9972   -2.0442    0.6717 H   0  0  0  0  0  0  0  0  0  0  0  0
   -5.6050   -1.7313    1.3439 H   0  0  0  0  0  0  0  0  0  0  0  0
  1  2  1  0  0  0  0
  2  3  1  0  0  0  0
  3  4  2  0  0  0  0
  4  5  2  0  0  0  0
  4  6  2  0  0  0  0
  6  7  1  0  0  0  0
  7  8  1  0  0  0  0
  4  9  1  0  0  0  0
  9 10  1  0  0  0  0
 10 11  1  0  0  0  0
 11 12  1  0  0  0  0
 12 13  2  0  0  0  0
 12 14  2  0  0  0  0
 14 15  1  0  0  0  0
 15 16  1  0  0  0  0
 12 17  2  0  0  0  0
 17 18  1  0  0  0  0
 18 19  1  0  0  0  0
  1 20  1  0  0  0  0
  1 21  1  0  0  0  0
  1 22  1  0  0  0  0
  2 23  1  0  0  0  0
  2 24  1  0  0  0  0
  7 25  1  0  0  0  0
  7 26  1  0  0  0  0
  8 27  1  0  0  0  0
  8 28  1  0  0  0  0
  8 29  1  0  0  0  0
 10 30  1  0  0  0  0
 10 31  1  0  0  0  0
 15 32  1  0  0  0  0
 15 33  1  0  0  0  0
 16 34  1  0  0  0  0
 16 35  1  0  0  0  0
 16 36  1  0  0  0  0
 18 37  1  0  0  0  0
 18 38  1  0  0  0  0
 19 39  1  0  0  0  0
 19 40  1  0  0  0  0
 19 41  1  0  0  0  0
M  END
