 xtb: 6.7.1 (edcfbbe)
          04092505203D

 41 40  0     0  0            999 V2000
    3.0258    0.6417   -2.6257 C   0  0  0  0  0  0  0  0  0  0  0  0
    2.0630   -0.5208   -2.5137 C   0  0  0  0  0  0  0  0  0  0  0  0
    1.3281   -0.5089   -1.2727 O   0  0  0  0  0  0  0  0  0  0  0  0
    1.9771   -0.4775    0.1715 P   0  0  0  0  0  0  0  0  0  0  0  0
    2.5626    1.2721    0.8541 S   0  0  0  0  0  0  0  0  0  0  0  0
    3.0993   -1.5936    0.0046 O   0  0  0  0  0  0  0  0  0  0  0  0
    3.7490   -2.3207    1.0656 C   0  0  0  0  0  0  0  0  0  0  0  0
    4.3122   -1.4285    2.1512 C   0  0  0  0  0  0  0  0  0  0  0  0
    0.5040   -1.4298    1.3401 S   0  0  0  0  0  0  0  0  0  0  0  0
   -0.2920    0.0166    2.1094 C   0  0  0  0  0  0  0  0  0  0  0  0
   -2.0458    0.1437    1.7112 S   0  0  0  0  0  0  0  0  0  0  0  0
   -1.8636    0.6349   -0.3544 P   0  0  0  0  0  0  0  0  0  0  0  0
   -0.5669    2.0254   -0.8146 S   0  0  0  0  0  0  0  0  0  0  0  0
   -3.3785    0.8727   -0.7714 O   0  0  0  0  0  0  0  0  0  0  0  0
   -4.3123    1.7150   -0.0694 C   0  0  0  0  0  0  0  0  0  0  0  0
   -3.8000    3.1254    0.1305 C   0  0  0  0  0  0  0  0  0  0  0  0
   -1.5221   -0.7008   -1.1180 O   0  0  0  0  0  0  0  0  0  0  0  0
   -2.3089   -1.9139   -1.0061 C   0  0  0  0  0  0  0  0  0  0  0  0
   -3.2279   -2.0636   -2.2007 C   0  0  0  0  0  0  0  0  0  0  0  0
    3.4894    0.6377   -3.6071 H   0  0  0  0  0  0  0  0  0  0  0  0
    2.4955    1.5815   -2.4798 H   0  0  0  0  0  0  0  0  0  0  0  0
    3.7992    0.5607   -1.8621 H   0  0  0  0  0  0  0  0  0  0  0  0
    2.5888   -1.4757   -2.5877 H   0  0  0  0  0  0  0  0  0  0  0  0
    1.2778   -0.4623   -3.2699 H   0  0  0  0  0  0  0  0  0  0  0  0
    3.0239   -3.0251    1.4821 H   0  0  0  0  0  0  0  0  0  0  0  0
    4.5412   -2.8660    0.5489 H   0  0  0  0  0  0  0  0  0  0  0  0
    4.8603   -2.0366    2.8636 H   0  0  0  0  0  0  0  0  0  0  0  0
    4.9791   -0.6824    1.7257 H   0  0  0  0  0  0  0  0  0  0  0  0
    3.5080   -0.9099    2.6705 H   0  0  0  0  0  0  0  0  0  0  0  0
    0.2376    0.9176    1.7831 H   0  0  0  0  0  0  0  0  0  0  0  0
   -0.2382   -0.1011    3.1887 H   0  0  0  0  0  0  0  0  0  0  0  0
   -5.1987    1.7010   -0.7061 H   0  0  0  0  0  0  0  0  0  0  0  0
   -4.5364    1.2453    0.8923 H   0  0  0  0  0  0  0  0  0  0  0  0
   -3.5174    3.5661   -0.8229 H   0  0  0  0  0  0  0  0  0  0  0  0
   -4.5751    3.7291    0.5914 H   0  0  0  0  0  0  0  0  0  0  0  0
   -2.9230    3.1200    0.7766 H   0  0  0  0  0  0  0  0  0  0  0  0
   -1.5702   -2.7172   -0.9631 H   0  0  0  0  0  0  0  0  0  0  0  0
   -2.8748   -1.8877   -0.0704 H   0  0  0  0  0  0  0  0  0  0  0  0
   -2.6490   -2.0651   -3.1200 H   0  0  0  0  0  0  0  0  0  0  0  0
   -3.7692   -3.0007   -2.1152 H   0  0  0  0  0  0  0  0  0  0  0  0
   -3.9359   -1.2398   -2.2355 H   0  0  0  0  0  0  0  0  0  0  0  0
  1  2  1  0  0  0  0
  2  3  1  0  0  0  0
  3  4  2  0  0  0  0
  4  5  2  0  0  0  0
  4  6  2  0  0  0  0
  6  7  1  0  0  0  0
  7  8  1  0  0  0  0
  4  9  1  0  0  0  0
  9 10  1  0  0  0  0
 10 11  1  0  0  0  0
 11 12  1  0  0  0  0
 12 13  2  0  0  0  0
 12 14  2  0  0  0  0
 14 15  1  0  0  0  0
 15 16  1  0  0  0  0
 12 17  2  0  0  0  0
 17 18  1  0  0  0  0
 18 19  1  0  0  0  0
  1 20  1  0  0  0  0
  1 21  1  0  0  0  0
  1 22  1  0  0  0  0
  2 23  1  0  0  0  0
  2 24  1  0  0  0  0
  7 25  1  0  0  0  0
  7 26  1  0  0  0  0
  8 27  1  0  0  0  0
  8 28  1  0  0  0  0
  8 29  1  0  0  0  0
 10 30  1  0  0  0  0
 10 31  1  0  0  0  0
 15 32  1  0  0  0  0
 15 33  1  0  0  0  0
 16 34  1  0  0  0  0
 16 35  1  0  0  0  0
 16 36  1  0  0  0  0
 18 37  1  0  0  0  0
 18 38  1  0  0  0  0
 19 39  1  0  0  0  0
 19 40  1  0  0  0  0
 19 41  1  0  0  0  0
M  END
