 xtb: 6.7.1 (edcfbbe)
          04032519423D

 20 20  0     0  0            999 V2000
    0.6182    1.7004   -0.0143 C   0  0  0  0  0  0  0  0  0  0  0  0
    1.3987    0.4006   -0.2690 C   0  0  0  0  0  0  0  0  0  0  0  0
    1.5801    0.2974   -1.3455 H   0  0  0  0  0  0  0  0  0  0  0  0
    0.5425   -0.7858    0.2172 C   0  0  0  0  0  0  0  0  0  0  0  0
    0.3467   -0.6799    1.2915 H   0  0  0  0  0  0  0  0  0  0  0  0
   -0.8021   -0.7417   -0.5349 C   0  0  0  0  0  0  0  0  0  0  0  0
   -0.6229   -0.8411   -1.6110 H   0  0  0  0  0  0  0  0  0  0  0  0
   -1.4709    0.6257   -0.2763 C   0  0  0  0  0  0  0  0  0  0  0  0
   -2.3621    0.7178   -0.9125 H   0  0  0  0  0  0  0  0  0  0  0  0
   -0.6420    1.6904   -0.6695 O   0  0  0  0  0  0  0  0  0  0  0  0
   -1.8020    0.6805    1.0766 O   0  0  0  0  0  0  0  0  0  0  0  0
   -1.6583   -1.7945   -0.1922 O   0  0  0  0  0  0  0  0  0  0  0  0
    1.1971   -2.0202    0.0940 O   0  0  0  0  0  0  0  0  0  0  0  0
    2.6728    0.4311    0.3176 O   0  0  0  0  0  0  0  0  0  0  0  0
    1.1538    2.5570   -0.4225 H   0  0  0  0  0  0  0  0  0  0  0  0
    0.4770    1.8339    1.0657 H   0  0  0  0  0  0  0  0  0  0  0  0
   -2.3728    1.4428    1.2546 H   0  0  0  0  0  0  0  0  0  0  0  0
   -1.8990   -1.7119    0.7435 H   0  0  0  0  0  0  0  0  0  0  0  0
    1.3824   -2.2080   -0.8366 H   0  0  0  0  0  0  0  0  0  0  0  0
    2.5946    0.3778    1.2812 H   0  0  0  0  0  0  0  0  0  0  0  0
  1  2  1  0  0  0  0
  2  3  1  0  0  0  0
  2  4  1  0  0  0  0
  4  5  1  0  0  0  0
  4  6  1  0  0  0  0
  6  7  1  0  0  0  0
  6  8  1  0  0  0  0
  8  9  1  0  0  0  0
  1 10  1  0  0  0  0
  8 10  1  0  0  0  0
  8 11  1  0  0  0  0
  6 12  1  0  0  0  0
  4 13  1  0  0  0  0
  2 14  1  0  0  0  0
  1 15  1  0  0  0  0
  1 16  1  0  0  0  0
 11 17  1  0  0  0  0
 12 18  1  0  0  0  0
 13 19  1  0  0  0  0
 14 20  1  0  0  0  0
M  END
