 xtb: 6.7.1 (edcfbbe)
          04092505203D

 41 40  0     0  0            999 V2000
    2.6563    2.3425    1.2581 C   0  0  0  0  0  0  0  0  0  0  0  0
    1.2449    1.9509    1.6363 C   0  0  0  0  0  0  0  0  0  0  0  0
    1.0951    0.5385    1.9212 O   0  0  0  0  0  0  0  0  0  0  0  0
    1.6009   -0.6587    1.0304 P   0  0  0  0  0  0  0  0  0  0  0  0
    0.7990   -2.3744    1.5360 S   0  0  0  0  0  0  0  0  0  0  0  0
    3.1713   -0.6092    1.3126 O   0  0  0  0  0  0  0  0  0  0  0  0
    4.0410   -1.7286    1.0919 C   0  0  0  0  0  0  0  0  0  0  0  0
    4.1476   -2.1044   -0.3727 C   0  0  0  0  0  0  0  0  0  0  0  0
    1.4228   -0.0523   -1.0067 S   0  0  0  0  0  0  0  0  0  0  0  0
    0.3621   -1.3725   -1.6372 C   0  0  0  0  0  0  0  0  0  0  0  0
   -1.2267   -0.7974   -2.3173 S   0  0  0  0  0  0  0  0  0  0  0  0
   -2.0036    0.3778   -0.7449 P   0  0  0  0  0  0  0  0  0  0  0  0
   -3.9387    0.6564   -0.8234 S   0  0  0  0  0  0  0  0  0  0  0  0
   -1.1537    1.7280   -0.6867 O   0  0  0  0  0  0  0  0  0  0  0  0
   -1.4708    2.8666   -1.5075 C   0  0  0  0  0  0  0  0  0  0  0  0
   -1.0174    2.6715   -2.9407 C   0  0  0  0  0  0  0  0  0  0  0  0
   -1.4206   -0.3680    0.5365 O   0  0  0  0  0  0  0  0  0  0  0  0
   -2.2370   -0.5534    1.7115 C   0  0  0  0  0  0  0  0  0  0  0  0
   -2.3034    0.7085    2.5438 C   0  0  0  0  0  0  0  0  0  0  0  0
    2.7043    3.4218    1.1499 H   0  0  0  0  0  0  0  0  0  0  0  0
    3.3552    2.0260    2.0280 H   0  0  0  0  0  0  0  0  0  0  0  0
    2.9377    1.8797    0.3135 H   0  0  0  0  0  0  0  0  0  0  0  0
    0.5404    2.2053    0.8413 H   0  0  0  0  0  0  0  0  0  0  0  0
    0.9358    2.4274    2.5687 H   0  0  0  0  0  0  0  0  0  0  0  0
    5.0000   -1.3951    1.4908 H   0  0  0  0  0  0  0  0  0  0  0  0
    3.6711   -2.5758    1.6784 H   0  0  0  0  0  0  0  0  0  0  0  0
    4.9205   -2.8568   -0.4922 H   0  0  0  0  0  0  0  0  0  0  0  0
    3.2016   -2.5172   -0.7205 H   0  0  0  0  0  0  0  0  0  0  0  0
    4.3972   -1.2325   -0.9717 H   0  0  0  0  0  0  0  0  0  0  0  0
    0.1793   -2.0893   -0.8318 H   0  0  0  0  0  0  0  0  0  0  0  0
    0.8594   -1.8432   -2.4820 H   0  0  0  0  0  0  0  0  0  0  0  0
   -2.5513    3.0374   -1.4582 H   0  0  0  0  0  0  0  0  0  0  0  0
   -0.9432    3.6937   -1.0300 H   0  0  0  0  0  0  0  0  0  0  0  0
   -1.6075    1.8918   -3.4203 H   0  0  0  0  0  0  0  0  0  0  0  0
   -1.1510    3.6000   -3.4864 H   0  0  0  0  0  0  0  0  0  0  0  0
    0.0312    2.3846   -2.9666 H   0  0  0  0  0  0  0  0  0  0  0  0
   -3.2380   -0.8606    1.3935 H   0  0  0  0  0  0  0  0  0  0  0  0
   -1.7528   -1.3717    2.2478 H   0  0  0  0  0  0  0  0  0  0  0  0
   -2.9158    0.5234    3.4206 H   0  0  0  0  0  0  0  0  0  0  0  0
   -1.3054    1.0034    2.8552 H   0  0  0  0  0  0  0  0  0  0  0  0
   -2.7511    1.5109    1.9587 H   0  0  0  0  0  0  0  0  0  0  0  0
  1  2  1  0  0  0  0
  2  3  1  0  0  0  0
  3  4  2  0  0  0  0
  4  5  2  0  0  0  0
  4  6  1  0  0  0  0
  6  7  1  0  0  0  0
  7  8  1  0  0  0  0
  4  9  1  0  0  0  0
  9 10  1  0  0  0  0
 10 11  1  0  0  0  0
 11 12  1  0  0  0  0
 12 13  2  0  0  0  0
 12 14  1  0  0  0  0
 14 15  1  0  0  0  0
 15 16  1  0  0  0  0
 12 17  1  0  0  0  0
 17 18  1  0  0  0  0
 18 19  1  0  0  0  0
  1 20  1  0  0  0  0
  1 21  1  0  0  0  0
  1 22  1  0  0  0  0
  2 23  1  0  0  0  0
  2 24  1  0  0  0  0
  7 25  1  0  0  0  0
  7 26  1  0  0  0  0
  8 27  1  0  0  0  0
  8 28  1  0  0  0  0
  8 29  1  0  0  0  0
 10 30  1  0  0  0  0
 10 31  1  0  0  0  0
 15 32  1  0  0  0  0
 15 33  1  0  0  0  0
 16 34  1  0  0  0  0
 16 35  1  0  0  0  0
 16 36  1  0  0  0  0
 18 37  1  0  0  0  0
 18 38  1  0  0  0  0
 19 39  1  0  0  0  0
 19 40  1  0  0  0  0
 19 41  1  0  0  0  0
M  END
