 xtb: 6.7.1 (edcfbbe)
          04092505213D

 41 40  0     0  0            999 V2000
    2.4046    2.9244    0.7416 C   0  0  0  0  0  0  0  0  0  0  0  0
    2.0035    2.1665   -0.5069 C   0  0  0  0  0  0  0  0  0  0  0  0
    1.3388    0.9236   -0.1894 O   0  0  0  0  0  0  0  0  0  0  0  0
    2.0493   -0.3245    0.4885 P   0  0  0  0  0  0  0  0  0  0  0  0
    2.1590   -0.3627    2.4498 S   0  0  0  0  0  0  0  0  0  0  0  0
    3.4556   -0.3333   -0.2473 O   0  0  0  0  0  0  0  0  0  0  0  0
    4.5744   -1.0863    0.2552 C   0  0  0  0  0  0  0  0  0  0  0  0
    4.3797   -2.5778    0.0778 C   0  0  0  0  0  0  0  0  0  0  0  0
    0.9728   -1.9121   -0.4056 S   0  0  0  0  0  0  0  0  0  0  0  0
   -0.4112   -1.9647    0.7765 C   0  0  0  0  0  0  0  0  0  0  0  0
   -1.1143   -0.3474    1.1721 S   0  0  0  0  0  0  0  0  0  0  0  0
   -2.0803    0.1206   -0.6872 P   0  0  0  0  0  0  0  0  0  0  0  0
   -1.0714    0.0577   -2.3589 S   0  0  0  0  0  0  0  0  0  0  0  0
   -2.7456    1.5120   -0.2990 O   0  0  0  0  0  0  0  0  0  0  0  0
   -1.9692    2.7004   -0.0494 C   0  0  0  0  0  0  0  0  0  0  0  0
   -1.7800    3.5071   -1.3194 C   0  0  0  0  0  0  0  0  0  0  0  0
   -3.3081   -0.8621   -0.7592 O   0  0  0  0  0  0  0  0  0  0  0  0
   -4.3381   -0.9523    0.2570 C   0  0  0  0  0  0  0  0  0  0  0  0
   -5.5309   -0.0955   -0.1144 C   0  0  0  0  0  0  0  0  0  0  0  0
    3.1392    2.3512    1.3061 H   0  0  0  0  0  0  0  0  0  0  0  0
    2.8375    3.8790    0.4599 H   0  0  0  0  0  0  0  0  0  0  0  0
    1.5399    3.0939    1.3792 H   0  0  0  0  0  0  0  0  0  0  0  0
    2.8707    1.9447   -1.1318 H   0  0  0  0  0  0  0  0  0  0  0  0
    1.2597    2.7097   -1.0930 H   0  0  0  0  0  0  0  0  0  0  0  0
    5.4204   -0.7173   -0.3260 H   0  0  0  0  0  0  0  0  0  0  0  0
    4.7090   -0.8392    1.3133 H   0  0  0  0  0  0  0  0  0  0  0  0
    3.5703   -2.9259    0.7180 H   0  0  0  0  0  0  0  0  0  0  0  0
    4.1297   -2.8061   -0.9554 H   0  0  0  0  0  0  0  0  0  0  0  0
    5.2937   -3.0945    0.3519 H   0  0  0  0  0  0  0  0  0  0  0  0
   -0.0583   -2.3655    1.7258 H   0  0  0  0  0  0  0  0  0  0  0  0
   -1.1670   -2.6085    0.3316 H   0  0  0  0  0  0  0  0  0  0  0  0
   -2.5487    3.2551    0.6914 H   0  0  0  0  0  0  0  0  0  0  0  0
   -1.0076    2.4141    0.3854 H   0  0  0  0  0  0  0  0  0  0  0  0
   -1.2284    2.9261   -2.0558 H   0  0  0  0  0  0  0  0  0  0  0  0
   -2.7461    3.7692   -1.7416 H   0  0  0  0  0  0  0  0  0  0  0  0
   -1.2302    4.4145   -1.0903 H   0  0  0  0  0  0  0  0  0  0  0  0
   -4.6035   -2.0107    0.2825 H   0  0  0  0  0  0  0  0  0  0  0  0
   -3.9157   -0.6502    1.2192 H   0  0  0  0  0  0  0  0  0  0  0  0
   -5.9055   -0.3842   -1.0926 H   0  0  0  0  0  0  0  0  0  0  0  0
   -6.3127   -0.2357    0.6255 H   0  0  0  0  0  0  0  0  0  0  0  0
   -5.2470    0.9528   -0.1440 H   0  0  0  0  0  0  0  0  0  0  0  0
  1  2  1  0  0  0  0
  2  3  1  0  0  0  0
  3  4  2  0  0  0  0
  4  5  2  0  0  0  0
  4  6  2  0  0  0  0
  6  7  1  0  0  0  0
  7  8  1  0  0  0  0
  4  9  1  0  0  0  0
  9 10  1  0  0  0  0
 10 11  1  0  0  0  0
 11 12  1  0  0  0  0
 12 13  2  0  0  0  0
 12 14  2  0  0  0  0
 14 15  1  0  0  0  0
 15 16  1  0  0  0  0
 12 17  2  0  0  0  0
 17 18  1  0  0  0  0
 18 19  1  0  0  0  0
  1 20  1  0  0  0  0
  1 21  1  0  0  0  0
  1 22  1  0  0  0  0
  2 23  1  0  0  0  0
  2 24  1  0  0  0  0
  7 25  1  0  0  0  0
  7 26  1  0  0  0  0
  8 27  1  0  0  0  0
  8 28  1  0  0  0  0
  8 29  1  0  0  0  0
 10 30  1  0  0  0  0
 10 31  1  0  0  0  0
 15 32  1  0  0  0  0
 15 33  1  0  0  0  0
 16 34  1  0  0  0  0
 16 35  1  0  0  0  0
 16 36  1  0  0  0  0
 18 37  1  0  0  0  0
 18 38  1  0  0  0  0
 19 39  1  0  0  0  0
 19 40  1  0  0  0  0
 19 41  1  0  0  0  0
M  END
