 xtb: 6.7.1 (edcfbbe)
          04092505213D

 41 40  0     0  0            999 V2000
    3.3847   -1.9506    2.1301 C   0  0  0  0  0  0  0  0  0  0  0  0
    1.9848   -1.9189    1.5515 C   0  0  0  0  0  0  0  0  0  0  0  0
    1.6560   -0.6075    1.0540 O   0  0  0  0  0  0  0  0  0  0  0  0
    2.3034   -0.0319   -0.2919 P   0  0  0  0  0  0  0  0  0  0  0  0
    2.8970   -1.3678   -1.5852 S   0  0  0  0  0  0  0  0  0  0  0  0
    3.4820    0.9328    0.1404 O   0  0  0  0  0  0  0  0  0  0  0  0
    3.3082    1.9962    1.1105 C   0  0  0  0  0  0  0  0  0  0  0  0
    4.6402    2.7008    1.2577 C   0  0  0  0  0  0  0  0  0  0  0  0
    0.7631    1.2927   -0.9027 S   0  0  0  0  0  0  0  0  0  0  0  0
   -0.1713    0.0529   -1.8354 C   0  0  0  0  0  0  0  0  0  0  0  0
   -1.0217   -1.1377   -0.7775 S   0  0  0  0  0  0  0  0  0  0  0  0
   -2.5532    0.2070   -0.1285 P   0  0  0  0  0  0  0  0  0  0  0  0
   -3.2108    1.4603   -1.4755 S   0  0  0  0  0  0  0  0  0  0  0  0
   -1.9585    0.9478    1.1282 O   0  0  0  0  0  0  0  0  0  0  0  0
   -1.5255    0.2473    2.3223 C   0  0  0  0  0  0  0  0  0  0  0  0
   -0.5150    1.1247    3.0305 C   0  0  0  0  0  0  0  0  0  0  0  0
   -3.6353   -0.7485    0.5384 O   0  0  0  0  0  0  0  0  0  0  0  0
   -4.7102   -1.3505   -0.2069 C   0  0  0  0  0  0  0  0  0  0  0  0
   -4.2137   -2.3383   -1.2422 C   0  0  0  0  0  0  0  0  0  0  0  0
    4.1078   -1.7147    1.3492 H   0  0  0  0  0  0  0  0  0  0  0  0
    3.4822   -1.2258    2.9340 H   0  0  0  0  0  0  0  0  0  0  0  0
    3.5940   -2.9437    2.5147 H   0  0  0  0  0  0  0  0  0  0  0  0
    1.2262   -2.1170    2.3098 H   0  0  0  0  0  0  0  0  0  0  0  0
    1.8875   -2.6374    0.7320 H   0  0  0  0  0  0  0  0  0  0  0  0
    2.5336    2.6745    0.7415 H   0  0  0  0  0  0  0  0  0  0  0  0
    2.9818    1.5532    2.0546 H   0  0  0  0  0  0  0  0  0  0  0  0
    4.5393    3.5064    1.9777 H   0  0  0  0  0  0  0  0  0  0  0  0
    5.3973    2.0017    1.6009 H   0  0  0  0  0  0  0  0  0  0  0  0
    4.9520    3.1101    0.3011 H   0  0  0  0  0  0  0  0  0  0  0  0
    0.5123   -0.5133   -2.4686 H   0  0  0  0  0  0  0  0  0  0  0  0
   -0.9078    0.5980   -2.4273 H   0  0  0  0  0  0  0  0  0  0  0  0
   -2.4093    0.0670    2.9369 H   0  0  0  0  0  0  0  0  0  0  0  0
   -1.0895   -0.7114    2.0253 H   0  0  0  0  0  0  0  0  0  0  0  0
   -0.9523    2.0957    3.2432 H   0  0  0  0  0  0  0  0  0  0  0  0
   -0.2171    0.6496    3.9596 H   0  0  0  0  0  0  0  0  0  0  0  0
    0.3585    1.2664    2.3993 H   0  0  0  0  0  0  0  0  0  0  0  0
   -5.3129   -1.8390    0.5601 H   0  0  0  0  0  0  0  0  0  0  0  0
   -5.2870   -0.5520   -0.6831 H   0  0  0  0  0  0  0  0  0  0  0  0
   -3.5458   -3.0645   -0.7857 H   0  0  0  0  0  0  0  0  0  0  0  0
   -5.0622   -2.8537   -1.6805 H   0  0  0  0  0  0  0  0  0  0  0  0
   -3.6762   -1.8135   -2.0308 H   0  0  0  0  0  0  0  0  0  0  0  0
  1  2  1  0  0  0  0
  2  3  1  0  0  0  0
  3  4  1  0  0  0  0
  4  5  2  0  0  0  0
  4  6  2  0  0  0  0
  6  7  1  0  0  0  0
  7  8  1  0  0  0  0
  4  9  1  0  0  0  0
  9 10  1  0  0  0  0
 10 11  1  0  0  0  0
 11 12  1  0  0  0  0
 12 13  2  0  0  0  0
 12 14  2  0  0  0  0
 14 15  1  0  0  0  0
 15 16  1  0  0  0  0
 12 17  2  0  0  0  0
 17 18  1  0  0  0  0
 18 19  1  0  0  0  0
  1 20  1  0  0  0  0
  1 21  1  0  0  0  0
  1 22  1  0  0  0  0
  2 23  1  0  0  0  0
  2 24  1  0  0  0  0
  7 25  1  0  0  0  0
  7 26  1  0  0  0  0
  8 27  1  0  0  0  0
  8 28  1  0  0  0  0
  8 29  1  0  0  0  0
 10 30  1  0  0  0  0
 10 31  1  0  0  0  0
 15 32  1  0  0  0  0
 15 33  1  0  0  0  0
 16 34  1  0  0  0  0
 16 35  1  0  0  0  0
 16 36  1  0  0  0  0
 18 37  1  0  0  0  0
 18 38  1  0  0  0  0
 19 39  1  0  0  0  0
 19 40  1  0  0  0  0
 19 41  1  0  0  0  0
M  END
