 xtb: 6.7.1 (edcfbbe)
          04092505203D

 41 40  0     0  0            999 V2000
    4.7706   -0.9716   -0.8951 C   0  0  0  0  0  0  0  0  0  0  0  0
    4.3817   -0.5943    0.5183 C   0  0  0  0  0  0  0  0  0  0  0  0
    3.3273    0.3861    0.5801 O   0  0  0  0  0  0  0  0  0  0  0  0
    1.9272    0.3129   -0.1715 P   0  0  0  0  0  0  0  0  0  0  0  0
    1.9419    0.6488   -2.1108 S   0  0  0  0  0  0  0  0  0  0  0  0
    1.0715    1.3051    0.7182 O   0  0  0  0  0  0  0  0  0  0  0  0
    1.5237    2.5877    1.1975 C   0  0  0  0  0  0  0  0  0  0  0  0
    1.9569    3.5019    0.0714 C   0  0  0  0  0  0  0  0  0  0  0  0
    1.1664   -1.5724    0.3845 S   0  0  0  0  0  0  0  0  0  0  0  0
    0.0218   -1.8853   -0.9938 C   0  0  0  0  0  0  0  0  0  0  0  0
   -1.7013   -2.0219   -0.4665 S   0  0  0  0  0  0  0  0  0  0  0  0
   -2.0392    0.0040    0.0910 P   0  0  0  0  0  0  0  0  0  0  0  0
   -1.4809    1.3771   -1.1840 S   0  0  0  0  0  0  0  0  0  0  0  0
   -1.3834    0.1670    1.5154 O   0  0  0  0  0  0  0  0  0  0  0  0
   -1.7608   -0.6639    2.6469 C   0  0  0  0  0  0  0  0  0  0  0  0
   -0.6099   -0.6656    3.6309 C   0  0  0  0  0  0  0  0  0  0  0  0
   -3.5885    0.0101    0.4566 O   0  0  0  0  0  0  0  0  0  0  0  0
   -4.6228    0.2503   -0.5141 C   0  0  0  0  0  0  0  0  0  0  0  0
   -4.7167   -0.8562   -1.5444 C   0  0  0  0  0  0  0  0  0  0  0  0
    3.9427   -1.4717   -1.3949 H   0  0  0  0  0  0  0  0  0  0  0  0
    5.0301   -0.0858   -1.4700 H   0  0  0  0  0  0  0  0  0  0  0  0
    5.6231   -1.6425   -0.8636 H   0  0  0  0  0  0  0  0  0  0  0  0
    5.2079   -0.1094    1.0419 H   0  0  0  0  0  0  0  0  0  0  0  0
    4.0538   -1.4752    1.0765 H   0  0  0  0  0  0  0  0  0  0  0  0
    0.6493    2.9828    1.7182 H   0  0  0  0  0  0  0  0  0  0  0  0
    2.3401    2.4192    1.9035 H   0  0  0  0  0  0  0  0  0  0  0  0
    1.1539    3.6048   -0.6568 H   0  0  0  0  0  0  0  0  0  0  0  0
    2.2086    4.4792    0.4711 H   0  0  0  0  0  0  0  0  0  0  0  0
    2.8276    3.0843   -0.4335 H   0  0  0  0  0  0  0  0  0  0  0  0
    0.2754   -2.8479   -1.4305 H   0  0  0  0  0  0  0  0  0  0  0  0
    0.1332   -1.0787   -1.7254 H   0  0  0  0  0  0  0  0  0  0  0  0
   -2.6649   -0.2324    3.0801 H   0  0  0  0  0  0  0  0  0  0  0  0
   -1.9792   -1.6728    2.2842 H   0  0  0  0  0  0  0  0  0  0  0  0
    0.2741   -1.1040    3.1745 H   0  0  0  0  0  0  0  0  0  0  0  0
   -0.3792    0.3512    3.9361 H   0  0  0  0  0  0  0  0  0  0  0  0
   -0.8902   -1.2493    4.5017 H   0  0  0  0  0  0  0  0  0  0  0  0
   -5.5297    0.3180    0.0885 H   0  0  0  0  0  0  0  0  0  0  0  0
   -4.4236    1.2111   -0.9985 H   0  0  0  0  0  0  0  0  0  0  0  0
   -3.8347   -0.8470   -2.1830 H   0  0  0  0  0  0  0  0  0  0  0  0
   -4.7868   -1.8247   -1.0556 H   0  0  0  0  0  0  0  0  0  0  0  0
   -5.5961   -0.6970   -2.1601 H   0  0  0  0  0  0  0  0  0  0  0  0
  1  2  1  0  0  0  0
  2  3  1  0  0  0  0
  3  4  2  0  0  0  0
  4  5  2  0  0  0  0
  4  6  2  0  0  0  0
  6  7  1  0  0  0  0
  7  8  1  0  0  0  0
  4  9  1  0  0  0  0
  9 10  1  0  0  0  0
 10 11  1  0  0  0  0
 11 12  1  0  0  0  0
 12 13  2  0  0  0  0
 12 14  2  0  0  0  0
 14 15  1  0  0  0  0
 15 16  1  0  0  0  0
 12 17  2  0  0  0  0
 17 18  1  0  0  0  0
 18 19  1  0  0  0  0
  1 20  1  0  0  0  0
  1 21  1  0  0  0  0
  1 22  1  0  0  0  0
  2 23  1  0  0  0  0
  2 24  1  0  0  0  0
  7 25  1  0  0  0  0
  7 26  1  0  0  0  0
  8 27  1  0  0  0  0
  8 28  1  0  0  0  0
  8 29  1  0  0  0  0
 10 30  1  0  0  0  0
 10 31  1  0  0  0  0
 15 32  1  0  0  0  0
 15 33  1  0  0  0  0
 16 34  1  0  0  0  0
 16 35  1  0  0  0  0
 16 36  1  0  0  0  0
 18 37  1  0  0  0  0
 18 38  1  0  0  0  0
 19 39  1  0  0  0  0
 19 40  1  0  0  0  0
 19 41  1  0  0  0  0
M  END
