 xtb: 6.7.1 (edcfbbe)
          04092507313D

 38 37  0     0  0            999 V2000
    2.8078   -4.0890    0.1458 C   0  0  0  0  0  0  0  0  0  0  0  0
    2.5860   -2.6412    0.5345 C   0  0  0  0  0  0  0  0  0  0  0  0
    2.1867   -1.9204   -0.6476 O   0  0  0  0  0  0  0  0  0  0  0  0
    2.1145   -0.6127   -0.5894 C   0  0  0  0  0  0  0  0  0  0  0  0
    2.3456    0.0536    0.4011 O   0  0  0  0  0  0  0  0  0  0  0  0
    1.7293    0.0030   -1.9222 C   0  0  0  0  0  0  0  0  0  0  0  0
    0.5099    0.9163   -1.7606 C   0  0  0  0  0  0  0  0  0  0  0  0
    0.4321    1.5882   -2.6181 H   0  0  0  0  0  0  0  0  0  0  0  0
    0.6087    1.7365   -0.4883 C   0  0  0  0  0  0  0  0  0  0  0  0
   -0.1559    1.5754    0.4470 O   0  0  0  0  0  0  0  0  0  0  0  0
    1.5559    2.6226   -0.5474 O   0  0  0  0  0  0  0  0  0  0  0  0
    1.8097    3.4366    0.6193 C   0  0  0  0  0  0  0  0  0  0  0  0
    0.8209    4.5863    0.7140 C   0  0  0  0  0  0  0  0  0  0  0  0
   -1.0585   -0.0158   -1.7356 S   0  0  0  0  0  0  0  0  0  0  0  0
   -1.6171   -0.3062    0.2747 P   0  0  0  0  0  0  0  0  0  0  0  0
   -0.4939   -1.0558    1.7132 S   0  0  0  0  0  0  0  0  0  0  0  0
   -2.5972    0.9083    0.6075 O   0  0  0  0  0  0  0  0  0  0  0  0
   -3.4753    0.8342    1.7398 C   0  0  0  0  0  0  0  0  0  0  0  0
   -2.7712   -1.3980   -0.0558 O   0  0  0  0  0  0  0  0  0  0  0  0
   -2.4842   -2.7800   -0.2631 C   0  0  0  0  0  0  0  0  0  0  0  0
    3.1024   -4.6516    1.0251 H   0  0  0  0  0  0  0  0  0  0  0  0
    1.8910   -4.5087   -0.2566 H   0  0  0  0  0  0  0  0  0  0  0  0
    3.5886   -4.1585   -0.6057 H   0  0  0  0  0  0  0  0  0  0  0  0
    3.4943   -2.1754    0.9293 H   0  0  0  0  0  0  0  0  0  0  0  0
    1.7941   -2.5326    1.2834 H   0  0  0  0  0  0  0  0  0  0  0  0
    1.5188   -0.7821   -2.6464 H   0  0  0  0  0  0  0  0  0  0  0  0
    2.5746    0.6074   -2.2578 H   0  0  0  0  0  0  0  0  0  0  0  0
    1.7577    2.7919    1.5009 H   0  0  0  0  0  0  0  0  0  0  0  0
    2.8287    3.7930    0.4714 H   0  0  0  0  0  0  0  0  0  0  0  0
    1.0814    5.2091    1.5633 H   0  0  0  0  0  0  0  0  0  0  0  0
    0.8525    5.1839   -0.1928 H   0  0  0  0  0  0  0  0  0  0  0  0
   -0.1881    4.2046    0.8553 H   0  0  0  0  0  0  0  0  0  0  0  0
   -3.8790    1.8367    1.8568 H   0  0  0  0  0  0  0  0  0  0  0  0
   -2.9180    0.5396    2.6311 H   0  0  0  0  0  0  0  0  0  0  0  0
   -4.2699    0.1144    1.5453 H   0  0  0  0  0  0  0  0  0  0  0  0
   -1.7728   -3.1277    0.4894 H   0  0  0  0  0  0  0  0  0  0  0  0
   -2.0742   -2.9291   -1.2618 H   0  0  0  0  0  0  0  0  0  0  0  0
   -3.4331   -3.2998   -0.1570 H   0  0  0  0  0  0  0  0  0  0  0  0
  1  2  1  0  0  0  0
  2  3  1  0  0  0  0
  3  4  4  0  0  0  0
  4  5  2  0  0  0  0
  4  6  1  0  0  0  0
  6  7  1  0  0  0  0
  7  8  1  0  0  0  0
  7  9  1  0  0  0  0
  9 10  2  0  0  0  0
  9 11  4  0  0  0  0
 11 12  1  0  0  0  0
 12 13  1  0  0  0  0
  7 14  1  0  0  0  0
 14 15  1  0  0  0  0
 15 16  2  0  0  0  0
 15 17  1  0  0  0  0
 17 18  1  0  0  0  0
 15 19  1  0  0  0  0
 19 20  1  0  0  0  0
  1 21  1  0  0  0  0
  1 22  1  0  0  0  0
  1 23  1  0  0  0  0
  2 24  1  0  0  0  0
  2 25  1  0  0  0  0
  6 26  1  0  0  0  0
  6 27  1  0  0  0  0
 12 28  1  0  0  0  0
 12 29  1  0  0  0  0
 13 30  1  0  0  0  0
 13 31  1  0  0  0  0
 13 32  1  0  0  0  0
 18 33  1  0  0  0  0
 18 34  1  0  0  0  0
 18 35  1  0  0  0  0
 20 36  1  0  0  0  0
 20 37  1  0  0  0  0
 20 38  1  0  0  0  0
M  END
