 xtb: 6.7.1 (edcfbbe)
          04092505213D

 41 40  0     0  0            999 V2000
    3.6683    1.6575   -0.7536 C   0  0  0  0  0  0  0  0  0  0  0  0
    2.2700    1.8228   -0.1961 C   0  0  0  0  0  0  0  0  0  0  0  0
    1.5421    0.5822   -0.2225 O   0  0  0  0  0  0  0  0  0  0  0  0
    1.9233   -0.6404    0.7348 P   0  0  0  0  0  0  0  0  0  0  0  0
    2.7000   -0.1440    2.4538 S   0  0  0  0  0  0  0  0  0  0  0  0
    2.8555   -1.6128   -0.0964 O   0  0  0  0  0  0  0  0  0  0  0  0
    2.4867   -2.0893   -1.4177 C   0  0  0  0  0  0  0  0  0  0  0  0
    3.7606   -2.3235   -2.2021 C   0  0  0  0  0  0  0  0  0  0  0  0
    0.0812   -1.6659    0.7794 S   0  0  0  0  0  0  0  0  0  0  0  0
   -0.7295   -0.6107    2.0063 C   0  0  0  0  0  0  0  0  0  0  0  0
   -1.0766    1.0720    1.4148 S   0  0  0  0  0  0  0  0  0  0  0  0
   -2.0183    0.6117   -0.4320 P   0  0  0  0  0  0  0  0  0  0  0  0
   -0.9875    0.2535   -2.0652 S   0  0  0  0  0  0  0  0  0  0  0  0
   -3.0356    1.8239   -0.6181 O   0  0  0  0  0  0  0  0  0  0  0  0
   -2.6770    3.0295   -1.3103 C   0  0  0  0  0  0  0  0  0  0  0  0
   -1.7027    3.8646   -0.5043 C   0  0  0  0  0  0  0  0  0  0  0  0
   -2.9844   -0.5376    0.0579 O   0  0  0  0  0  0  0  0  0  0  0  0
   -3.4799   -1.5942   -0.7960 C   0  0  0  0  0  0  0  0  0  0  0  0
   -3.3275   -2.9184   -0.0753 C   0  0  0  0  0  0  0  0  0  0  0  0
    3.6242    1.2820   -1.7731 H   0  0  0  0  0  0  0  0  0  0  0  0
    4.1756    2.6170   -0.7444 H   0  0  0  0  0  0  0  0  0  0  0  0
    4.2277    0.9537   -0.1367 H   0  0  0  0  0  0  0  0  0  0  0  0
    1.6673    2.4947   -0.8099 H   0  0  0  0  0  0  0  0  0  0  0  0
    2.2998    2.1850    0.8366 H   0  0  0  0  0  0  0  0  0  0  0  0
    1.9245   -3.0162   -1.2822 H   0  0  0  0  0  0  0  0  0  0  0  0
    1.8434   -1.3482   -1.9014 H   0  0  0  0  0  0  0  0  0  0  0  0
    4.3055   -1.3919   -2.3274 H   0  0  0  0  0  0  0  0  0  0  0  0
    4.3941   -3.0306   -1.6744 H   0  0  0  0  0  0  0  0  0  0  0  0
    3.5061   -2.7240   -3.1781 H   0  0  0  0  0  0  0  0  0  0  0  0
   -0.0755   -0.4958    2.8719 H   0  0  0  0  0  0  0  0  0  0  0  0
   -1.6623   -1.1005    2.2744 H   0  0  0  0  0  0  0  0  0  0  0  0
   -2.2457    2.7569   -2.2798 H   0  0  0  0  0  0  0  0  0  0  0  0
   -3.6265    3.5453   -1.4586 H   0  0  0  0  0  0  0  0  0  0  0  0
   -1.4931    4.7902   -1.0307 H   0  0  0  0  0  0  0  0  0  0  0  0
   -2.1166    4.0887    0.4754 H   0  0  0  0  0  0  0  0  0  0  0  0
   -0.7722    3.3130   -0.3667 H   0  0  0  0  0  0  0  0  0  0  0  0
   -4.5277   -1.3663   -1.0007 H   0  0  0  0  0  0  0  0  0  0  0  0
   -2.9148   -1.5853   -1.7343 H   0  0  0  0  0  0  0  0  0  0  0  0
   -3.8759   -2.8995    0.8621 H   0  0  0  0  0  0  0  0  0  0  0  0
   -3.7208   -3.7103   -0.7041 H   0  0  0  0  0  0  0  0  0  0  0  0
   -2.2772   -3.1138    0.1319 H   0  0  0  0  0  0  0  0  0  0  0  0
  1  2  1  0  0  0  0
  2  3  1  0  0  0  0
  3  4  1  0  0  0  0
  4  5  2  0  0  0  0
  4  6  2  0  0  0  0
  6  7  1  0  0  0  0
  7  8  1  0  0  0  0
  4  9  1  0  0  0  0
  9 10  1  0  0  0  0
 10 11  1  0  0  0  0
 11 12  1  0  0  0  0
 12 13  2  0  0  0  0
 12 14  2  0  0  0  0
 14 15  1  0  0  0  0
 15 16  1  0  0  0  0
 12 17  2  0  0  0  0
 17 18  1  0  0  0  0
 18 19  1  0  0  0  0
  1 20  1  0  0  0  0
  1 21  1  0  0  0  0
  1 22  1  0  0  0  0
  2 23  1  0  0  0  0
  2 24  1  0  0  0  0
  7 25  1  0  0  0  0
  7 26  1  0  0  0  0
  8 27  1  0  0  0  0
  8 28  1  0  0  0  0
  8 29  1  0  0  0  0
 10 30  1  0  0  0  0
 10 31  1  0  0  0  0
 15 32  1  0  0  0  0
 15 33  1  0  0  0  0
 16 34  1  0  0  0  0
 16 35  1  0  0  0  0
 16 36  1  0  0  0  0
 18 37  1  0  0  0  0
 18 38  1  0  0  0  0
 19 39  1  0  0  0  0
 19 40  1  0  0  0  0
 19 41  1  0  0  0  0
M  END
