 xtb: 6.7.1 (edcfbbe)
          04092505213D

 41 40  0     0  0            999 V2000
    1.0859   -1.6281   -2.2302 C   0  0  0  0  0  0  0  0  0  0  0  0
    2.4602   -1.0240   -2.0226 C   0  0  0  0  0  0  0  0  0  0  0  0
    2.4511    0.0208   -1.0222 O   0  0  0  0  0  0  0  0  0  0  0  0
    2.5183   -0.1590    0.5451 P   0  0  0  0  0  0  0  0  0  0  0  0
    3.0062    1.5576    1.3515 S   0  0  0  0  0  0  0  0  0  0  0  0
    3.5280   -1.3787    0.6748 O   0  0  0  0  0  0  0  0  0  0  0  0
    3.6980   -2.1959    1.8495 C   0  0  0  0  0  0  0  0  0  0  0  0
    4.0306   -1.3856    3.0843 C   0  0  0  0  0  0  0  0  0  0  0  0
    0.6849   -0.9752    1.2645 S   0  0  0  0  0  0  0  0  0  0  0  0
   -0.1814    0.5983    1.4324 C   0  0  0  0  0  0  0  0  0  0  0  0
   -0.4377    1.4506   -0.1567 S   0  0  0  0  0  0  0  0  0  0  0  0
   -2.2280    0.4945   -0.7389 P   0  0  0  0  0  0  0  0  0  0  0  0
   -2.9425    1.0385   -2.4811 S   0  0  0  0  0  0  0  0  0  0  0  0
   -3.2613    0.6684    0.4712 O   0  0  0  0  0  0  0  0  0  0  0  0
   -4.2035    1.7507    0.5075 C   0  0  0  0  0  0  0  0  0  0  0  0
   -3.5270    3.0748    0.8006 C   0  0  0  0  0  0  0  0  0  0  0  0
   -1.7769   -1.0078   -0.5314 O   0  0  0  0  0  0  0  0  0  0  0  0
   -2.6878   -2.1307   -0.5619 C   0  0  0  0  0  0  0  0  0  0  0  0
   -2.8989   -2.6313   -1.9765 C   0  0  0  0  0  0  0  0  0  0  0  0
    0.7632   -2.1701   -1.3440 H   0  0  0  0  0  0  0  0  0  0  0  0
    0.3587   -0.8466   -2.4465 H   0  0  0  0  0  0  0  0  0  0  0  0
    1.1263   -2.3132   -3.0717 H   0  0  0  0  0  0  0  0  0  0  0  0
    2.8043   -0.5086   -2.9211 H   0  0  0  0  0  0  0  0  0  0  0  0
    3.1865   -1.7839   -1.7293 H   0  0  0  0  0  0  0  0  0  0  0  0
    2.7805   -2.7714    1.9996 H   0  0  0  0  0  0  0  0  0  0  0  0
    4.5173   -2.8643    1.5785 H   0  0  0  0  0  0  0  0  0  0  0  0
    4.2307   -2.0575    3.9127 H   0  0  0  0  0  0  0  0  0  0  0  0
    4.9037   -0.7626    2.9057 H   0  0  0  0  0  0  0  0  0  0  0  0
    3.1958   -0.7370    3.3448 H   0  0  0  0  0  0  0  0  0  0  0  0
    0.4269    1.2741    2.0342 H   0  0  0  0  0  0  0  0  0  0  0  0
   -1.1406    0.3910    1.8994 H   0  0  0  0  0  0  0  0  0  0  0  0
   -4.7217    1.7915   -0.4560 H   0  0  0  0  0  0  0  0  0  0  0  0
   -4.9029    1.4704    1.2963 H   0  0  0  0  0  0  0  0  0  0  0  0
   -4.2788    3.8530    0.8827 H   0  0  0  0  0  0  0  0  0  0  0  0
   -2.9631    3.0209    1.7284 H   0  0  0  0  0  0  0  0  0  0  0  0
   -2.8446    3.3290   -0.0105 H   0  0  0  0  0  0  0  0  0  0  0  0
   -2.1949   -2.8813    0.0590 H   0  0  0  0  0  0  0  0  0  0  0  0
   -3.6329   -1.8346   -0.1014 H   0  0  0  0  0  0  0  0  0  0  0  0
   -3.5457   -3.5027   -1.9542 H   0  0  0  0  0  0  0  0  0  0  0  0
   -3.3639   -1.8594   -2.5863 H   0  0  0  0  0  0  0  0  0  0  0  0
   -1.9470   -2.9010   -2.4255 H   0  0  0  0  0  0  0  0  0  0  0  0
  1  2  1  0  0  0  0
  2  3  1  0  0  0  0
  3  4  2  0  0  0  0
  4  5  2  0  0  0  0
  4  6  2  0  0  0  0
  6  7  1  0  0  0  0
  7  8  1  0  0  0  0
  4  9  1  0  0  0  0
  9 10  1  0  0  0  0
 10 11  1  0  0  0  0
 11 12  1  0  0  0  0
 12 13  2  0  0  0  0
 12 14  1  0  0  0  0
 14 15  1  0  0  0  0
 15 16  1  0  0  0  0
 12 17  2  0  0  0  0
 17 18  1  0  0  0  0
 18 19  1  0  0  0  0
  1 20  1  0  0  0  0
  1 21  1  0  0  0  0
  1 22  1  0  0  0  0
  2 23  1  0  0  0  0
  2 24  1  0  0  0  0
  7 25  1  0  0  0  0
  7 26  1  0  0  0  0
  8 27  1  0  0  0  0
  8 28  1  0  0  0  0
  8 29  1  0  0  0  0
 10 30  1  0  0  0  0
 10 31  1  0  0  0  0
 15 32  1  0  0  0  0
 15 33  1  0  0  0  0
 16 34  1  0  0  0  0
 16 35  1  0  0  0  0
 16 36  1  0  0  0  0
 18 37  1  0  0  0  0
 18 38  1  0  0  0  0
 19 39  1  0  0  0  0
 19 40  1  0  0  0  0
 19 41  1  0  0  0  0
M  END
