 xtb: 6.7.1 (edcfbbe)
          04092505213D

 41 40  0     0  0            999 V2000
    1.6542   -2.0578   -3.1082 C   0  0  0  0  0  0  0  0  0  0  0  0
    1.5488   -0.6716   -2.5065 C   0  0  0  0  0  0  0  0  0  0  0  0
    1.0657   -0.7519   -1.1488 O   0  0  0  0  0  0  0  0  0  0  0  0
    2.0921   -0.6992    0.0651 P   0  0  0  0  0  0  0  0  0  0  0  0
    3.7849   -1.6636   -0.1171 S   0  0  0  0  0  0  0  0  0  0  0  0
    1.0958   -1.2748    1.1578 O   0  0  0  0  0  0  0  0  0  0  0  0
    1.5716   -1.7645    2.4248 C   0  0  0  0  0  0  0  0  0  0  0  0
    1.9929   -0.6359    3.3449 C   0  0  0  0  0  0  0  0  0  0  0  0
    2.3472    1.3789    0.4477 S   0  0  0  0  0  0  0  0  0  0  0  0
    0.6769    2.0305    0.1487 C   0  0  0  0  0  0  0  0  0  0  0  0
   -0.6153    1.2669    1.1684 S   0  0  0  0  0  0  0  0  0  0  0  0
   -2.0770    0.8588   -0.3330 P   0  0  0  0  0  0  0  0  0  0  0  0
   -1.5210    1.1493   -2.1889 S   0  0  0  0  0  0  0  0  0  0  0  0
   -3.2946    1.8030   -0.0061 O   0  0  0  0  0  0  0  0  0  0  0  0
   -3.7560    2.2087    1.3049 C   0  0  0  0  0  0  0  0  0  0  0  0
   -4.0250    1.0408    2.2282 C   0  0  0  0  0  0  0  0  0  0  0  0
   -2.6739   -0.5672    0.0336 O   0  0  0  0  0  0  0  0  0  0  0  0
   -2.0207   -1.8282   -0.1889 C   0  0  0  0  0  0  0  0  0  0  0  0
   -2.3104   -2.3599   -1.5793 C   0  0  0  0  0  0  0  0  0  0  0  0
    2.3845   -2.6482   -2.5585 H   0  0  0  0  0  0  0  0  0  0  0  0
    0.6904   -2.5570   -3.0659 H   0  0  0  0  0  0  0  0  0  0  0  0
    1.9706   -1.9728   -4.1426 H   0  0  0  0  0  0  0  0  0  0  0  0
    0.8139   -0.0594   -3.0353 H   0  0  0  0  0  0  0  0  0  0  0  0
    2.5210   -0.1684   -2.5170 H   0  0  0  0  0  0  0  0  0  0  0  0
    0.7214   -2.3156    2.8290 H   0  0  0  0  0  0  0  0  0  0  0  0
    2.4061   -2.4490    2.2406 H   0  0  0  0  0  0  0  0  0  0  0  0
    2.2222   -1.0404    4.3254 H   0  0  0  0  0  0  0  0  0  0  0  0
    2.8801   -0.1421    2.9503 H   0  0  0  0  0  0  0  0  0  0  0  0
    1.1926    0.0955    3.4333 H   0  0  0  0  0  0  0  0  0  0  0  0
    0.4037    1.9007   -0.9025 H   0  0  0  0  0  0  0  0  0  0  0  0
    0.7492    3.0843    0.4072 H   0  0  0  0  0  0  0  0  0  0  0  0
   -3.0063    2.8778    1.7347 H   0  0  0  0  0  0  0  0  0  0  0  0
   -4.6670    2.7668    1.0837 H   0  0  0  0  0  0  0  0  0  0  0  0
   -4.7099    0.3389    1.7598 H   0  0  0  0  0  0  0  0  0  0  0  0
   -3.0953    0.5258    2.4639 H   0  0  0  0  0  0  0  0  0  0  0  0
   -4.4644    1.4126    3.1488 H   0  0  0  0  0  0  0  0  0  0  0  0
   -0.9459   -1.7189   -0.0295 H   0  0  0  0  0  0  0  0  0  0  0  0
   -2.4381   -2.4849    0.5773 H   0  0  0  0  0  0  0  0  0  0  0  0
   -3.3833   -2.4303   -1.7376 H   0  0  0  0  0  0  0  0  0  0  0  0
   -1.8900   -1.6973   -2.3327 H   0  0  0  0  0  0  0  0  0  0  0  0
   -1.8662   -3.3449   -1.6845 H   0  0  0  0  0  0  0  0  0  0  0  0
  1  2  1  0  0  0  0
  2  3  1  0  0  0  0
  3  4  2  0  0  0  0
  4  5  2  0  0  0  0
  4  6  2  0  0  0  0
  6  7  1  0  0  0  0
  7  8  1  0  0  0  0
  4  9  1  0  0  0  0
  9 10  1  0  0  0  0
 10 11  1  0  0  0  0
 11 12  1  0  0  0  0
 12 13  2  0  0  0  0
 12 14  2  0  0  0  0
 14 15  1  0  0  0  0
 15 16  1  0  0  0  0
 12 17  2  0  0  0  0
 17 18  1  0  0  0  0
 18 19  1  0  0  0  0
  1 20  1  0  0  0  0
  1 21  1  0  0  0  0
  1 22  1  0  0  0  0
  2 23  1  0  0  0  0
  2 24  1  0  0  0  0
  7 25  1  0  0  0  0
  7 26  1  0  0  0  0
  8 27  1  0  0  0  0
  8 28  1  0  0  0  0
  8 29  1  0  0  0  0
 10 30  1  0  0  0  0
 10 31  1  0  0  0  0
 15 32  1  0  0  0  0
 15 33  1  0  0  0  0
 16 34  1  0  0  0  0
 16 35  1  0  0  0  0
 16 36  1  0  0  0  0
 18 37  1  0  0  0  0
 18 38  1  0  0  0  0
 19 39  1  0  0  0  0
 19 40  1  0  0  0  0
 19 41  1  0  0  0  0
M  END
