 xtb: 6.7.1 (edcfbbe)
          04092505203D

 41 40  0     0  0            999 V2000
    5.3134    0.5311   -0.6143 C   0  0  0  0  0  0  0  0  0  0  0  0
    4.6004    0.1360    0.6637 C   0  0  0  0  0  0  0  0  0  0  0  0
    3.4471   -0.6894    0.4079 O   0  0  0  0  0  0  0  0  0  0  0  0
    2.0874   -0.1426   -0.2045 P   0  0  0  0  0  0  0  0  0  0  0  0
    2.0083    0.2406   -2.1299 S   0  0  0  0  0  0  0  0  0  0  0  0
    1.7706    1.1022    0.7410 O   0  0  0  0  0  0  0  0  0  0  0  0
    1.3024    2.3848    0.3002 C   0  0  0  0  0  0  0  0  0  0  0  0
    2.3621    3.4335    0.5731 C   0  0  0  0  0  0  0  0  0  0  0  0
    0.9641   -1.7832    0.4691 S   0  0  0  0  0  0  0  0  0  0  0  0
   -0.2389   -1.9820   -0.8939 C   0  0  0  0  0  0  0  0  0  0  0  0
   -1.9490   -1.9468   -0.3279 S   0  0  0  0  0  0  0  0  0  0  0  0
   -2.0530    0.1411    0.0737 P   0  0  0  0  0  0  0  0  0  0  0  0
   -1.5233    1.2739   -1.4355 S   0  0  0  0  0  0  0  0  0  0  0  0
   -1.1443    0.4231    1.3352 O   0  0  0  0  0  0  0  0  0  0  0  0
   -1.4930    0.1705    2.7209 C   0  0  0  0  0  0  0  0  0  0  0  0
   -1.8199   -1.2808    2.9991 C   0  0  0  0  0  0  0  0  0  0  0  0
   -3.5146    0.3769    0.6420 O   0  0  0  0  0  0  0  0  0  0  0  0
   -4.6490    0.6196   -0.2105 C   0  0  0  0  0  0  0  0  0  0  0  0
   -4.9918   -0.5814   -1.0667 C   0  0  0  0  0  0  0  0  0  0  0  0
    5.5915   -0.3554   -1.1785 H   0  0  0  0  0  0  0  0  0  0  0  0
    4.6633    1.1420   -1.2391 H   0  0  0  0  0  0  0  0  0  0  0  0
    6.2066    1.0971   -0.3693 H   0  0  0  0  0  0  0  0  0  0  0  0
    4.2826    1.0176    1.2265 H   0  0  0  0  0  0  0  0  0  0  0  0
    5.2317   -0.4946    1.2922 H   0  0  0  0  0  0  0  0  0  0  0  0
    1.0643    2.3351   -0.7680 H   0  0  0  0  0  0  0  0  0  0  0  0
    0.3841    2.5830    0.8568 H   0  0  0  0  0  0  0  0  0  0  0  0
    2.6294    3.4307    1.6263 H   0  0  0  0  0  0  0  0  0  0  0  0
    3.2497    3.2336   -0.0233 H   0  0  0  0  0  0  0  0  0  0  0  0
    1.9692    4.4087    0.3045 H   0  0  0  0  0  0  0  0  0  0  0  0
   -0.0852   -2.9626   -1.3367 H   0  0  0  0  0  0  0  0  0  0  0  0
   -0.0694   -1.1896   -1.6298 H   0  0  0  0  0  0  0  0  0  0  0  0
   -0.5982    0.4881    3.2594 H   0  0  0  0  0  0  0  0  0  0  0  0
   -2.3345    0.8175    2.9758 H   0  0  0  0  0  0  0  0  0  0  0  0
   -1.0018   -1.9238    2.6815 H   0  0  0  0  0  0  0  0  0  0  0  0
   -1.9752   -1.4039    4.0665 H   0  0  0  0  0  0  0  0  0  0  0  0
   -2.7258   -1.5737    2.4731 H   0  0  0  0  0  0  0  0  0  0  0  0
   -5.4504    0.8583    0.4902 H   0  0  0  0  0  0  0  0  0  0  0  0
   -4.4292    1.4891   -0.8374 H   0  0  0  0  0  0  0  0  0  0  0  0
   -5.0920   -1.4717   -0.4513 H   0  0  0  0  0  0  0  0  0  0  0  0
   -5.9257   -0.3946   -1.5872 H   0  0  0  0  0  0  0  0  0  0  0  0
   -4.2070   -0.7511   -1.8021 H   0  0  0  0  0  0  0  0  0  0  0  0
  1  2  1  0  0  0  0
  2  3  1  0  0  0  0
  3  4  2  0  0  0  0
  4  5  2  0  0  0  0
  4  6  2  0  0  0  0
  6  7  1  0  0  0  0
  7  8  1  0  0  0  0
  4  9  1  0  0  0  0
  9 10  1  0  0  0  0
 10 11  1  0  0  0  0
 11 12  1  0  0  0  0
 12 13  2  0  0  0  0
 12 14  2  0  0  0  0
 14 15  1  0  0  0  0
 15 16  1  0  0  0  0
 12 17  2  0  0  0  0
 17 18  1  0  0  0  0
 18 19  1  0  0  0  0
  1 20  1  0  0  0  0
  1 21  1  0  0  0  0
  1 22  1  0  0  0  0
  2 23  1  0  0  0  0
  2 24  1  0  0  0  0
  7 25  1  0  0  0  0
  7 26  1  0  0  0  0
  8 27  1  0  0  0  0
  8 28  1  0  0  0  0
  8 29  1  0  0  0  0
 10 30  1  0  0  0  0
 10 31  1  0  0  0  0
 15 32  1  0  0  0  0
 15 33  1  0  0  0  0
 16 34  1  0  0  0  0
 16 35  1  0  0  0  0
 16 36  1  0  0  0  0
 18 37  1  0  0  0  0
 18 38  1  0  0  0  0
 19 39  1  0  0  0  0
 19 40  1  0  0  0  0
 19 41  1  0  0  0  0
M  END
