 xtb: 6.7.1 (edcfbbe)
          04092507313D

 38 37  0     0  0            999 V2000
    4.0107   -2.6494    0.7078 C   0  0  0  0  0  0  0  0  0  0  0  0
    2.5243   -2.7292    0.4009 C   0  0  0  0  0  0  0  0  0  0  0  0
    2.1920   -1.9348   -0.7542 O   0  0  0  0  0  0  0  0  0  0  0  0
    1.9884   -0.6476   -0.5999 C   0  0  0  0  0  0  0  0  0  0  0  0
    2.0349   -0.0507    0.4577 O   0  0  0  0  0  0  0  0  0  0  0  0
    1.6792    0.0494   -1.9110 C   0  0  0  0  0  0  0  0  0  0  0  0
    0.4261    0.9161   -1.7559 C   0  0  0  0  0  0  0  0  0  0  0  0
    0.3706    1.6414   -2.5704 H   0  0  0  0  0  0  0  0  0  0  0  0
    0.4299    1.6508   -0.4313 C   0  0  0  0  0  0  0  0  0  0  0  0
   -0.4258    1.4532    0.4204 O   0  0  0  0  0  0  0  0  0  0  0  0
    1.3666    2.5397   -0.3457 O   0  0  0  0  0  0  0  0  0  0  0  0
    1.5249    3.2456    0.9063 C   0  0  0  0  0  0  0  0  0  0  0  0
    2.6205    4.2751    0.7210 C   0  0  0  0  0  0  0  0  0  0  0  0
   -1.1136   -0.0636   -1.8644 S   0  0  0  0  0  0  0  0  0  0  0  0
   -1.7366   -0.4675    0.1181 P   0  0  0  0  0  0  0  0  0  0  0  0
   -0.7075   -1.2531    1.6040 S   0  0  0  0  0  0  0  0  0  0  0  0
   -2.9099    0.5287    0.5693 O   0  0  0  0  0  0  0  0  0  0  0  0
   -2.8608    1.4344    1.6694 C   0  0  0  0  0  0  0  0  0  0  0  0
   -2.6750   -1.6086   -0.5421 O   0  0  0  0  0  0  0  0  0  0  0  0
   -3.5306   -2.4337    0.2466 C   0  0  0  0  0  0  0  0  0  0  0  0
    4.5882   -2.9456   -0.1636 H   0  0  0  0  0  0  0  0  0  0  0  0
    4.2803   -1.6340    0.9889 H   0  0  0  0  0  0  0  0  0  0  0  0
    4.2384   -3.3144    1.5340 H   0  0  0  0  0  0  0  0  0  0  0  0
    1.9256   -2.3802    1.2484 H   0  0  0  0  0  0  0  0  0  0  0  0
    2.2250   -3.7404    0.1255 H   0  0  0  0  0  0  0  0  0  0  0  0
    1.5363   -0.6853   -2.7010 H   0  0  0  0  0  0  0  0  0  0  0  0
    2.5276    0.6943   -2.1494 H   0  0  0  0  0  0  0  0  0  0  0  0
    0.5674    3.7054    1.1678 H   0  0  0  0  0  0  0  0  0  0  0  0
    1.7784    2.5032    1.6694 H   0  0  0  0  0  0  0  0  0  0  0  0
    3.5511    3.7837    0.4558 H   0  0  0  0  0  0  0  0  0  0  0  0
    2.3502    4.9710   -0.0673 H   0  0  0  0  0  0  0  0  0  0  0  0
    2.7565    4.8197    1.6492 H   0  0  0  0  0  0  0  0  0  0  0  0
   -2.1127    1.1080    2.3938 H   0  0  0  0  0  0  0  0  0  0  0  0
   -3.8536    1.4216    2.1147 H   0  0  0  0  0  0  0  0  0  0  0  0
   -2.6128    2.4303    1.3074 H   0  0  0  0  0  0  0  0  0  0  0  0
   -4.4165   -1.8743    0.5464 H   0  0  0  0  0  0  0  0  0  0  0  0
   -2.9976   -2.7862    1.1330 H   0  0  0  0  0  0  0  0  0  0  0  0
   -3.8035   -3.2714   -0.3905 H   0  0  0  0  0  0  0  0  0  0  0  0
  1  2  1  0  0  0  0
  2  3  1  0  0  0  0
  3  4  4  0  0  0  0
  4  5  2  0  0  0  0
  4  6  1  0  0  0  0
  6  7  1  0  0  0  0
  7  8  1  0  0  0  0
  7  9  1  0  0  0  0
  9 10  2  0  0  0  0
  9 11  4  0  0  0  0
 11 12  1  0  0  0  0
 12 13  1  0  0  0  0
  7 14  1  0  0  0  0
 14 15  1  0  0  0  0
 15 16  2  0  0  0  0
 15 17  1  0  0  0  0
 17 18  1  0  0  0  0
 15 19  1  0  0  0  0
 19 20  1  0  0  0  0
  1 21  1  0  0  0  0
  1 22  1  0  0  0  0
  1 23  1  0  0  0  0
  2 24  1  0  0  0  0
  2 25  1  0  0  0  0
  6 26  1  0  0  0  0
  6 27  1  0  0  0  0
 12 28  1  0  0  0  0
 12 29  1  0  0  0  0
 13 30  1  0  0  0  0
 13 31  1  0  0  0  0
 13 32  1  0  0  0  0
 18 33  1  0  0  0  0
 18 34  1  0  0  0  0
 18 35  1  0  0  0  0
 20 36  1  0  0  0  0
 20 37  1  0  0  0  0
 20 38  1  0  0  0  0
M  END
