 xtb: 6.7.1 (edcfbbe)
          04092505203D

 41 40  0     0  0            999 V2000
    3.0780   -1.4474   -2.4471 C   0  0  0  0  0  0  0  0  0  0  0  0
    2.1508   -0.2534   -2.5073 C   0  0  0  0  0  0  0  0  0  0  0  0
    2.2998    0.6268   -1.3706 O   0  0  0  0  0  0  0  0  0  0  0  0
    2.1571    0.2346    0.1463 P   0  0  0  0  0  0  0  0  0  0  0  0
    1.7324    1.7560    1.3043 S   0  0  0  0  0  0  0  0  0  0  0  0
    3.6075   -0.3718    0.4270 O   0  0  0  0  0  0  0  0  0  0  0  0
    4.1740   -0.4954    1.7394 C   0  0  0  0  0  0  0  0  0  0  0  0
    3.4190   -1.4819    2.6082 C   0  0  0  0  0  0  0  0  0  0  0  0
    0.8463   -1.4430    0.2429 S   0  0  0  0  0  0  0  0  0  0  0  0
   -0.2782   -0.8914    1.5645 C   0  0  0  0  0  0  0  0  0  0  0  0
   -2.0401   -1.0681    1.1731 S   0  0  0  0  0  0  0  0  0  0  0  0
   -2.3661    0.3409   -0.3843 P   0  0  0  0  0  0  0  0  0  0  0  0
   -0.8213    1.2312   -1.2217 S   0  0  0  0  0  0  0  0  0  0  0  0
   -3.4901    1.3082    0.1757 O   0  0  0  0  0  0  0  0  0  0  0  0
   -3.2042    2.5408    0.8547 C   0  0  0  0  0  0  0  0  0  0  0  0
   -2.4421    2.3321    2.1489 C   0  0  0  0  0  0  0  0  0  0  0  0
   -3.3158   -0.4341   -1.3841 O   0  0  0  0  0  0  0  0  0  0  0  0
   -2.8088   -1.2232   -2.4760 C   0  0  0  0  0  0  0  0  0  0  0  0
   -2.1757   -2.5192   -2.0079 C   0  0  0  0  0  0  0  0  0  0  0  0
    4.1074   -1.1165   -2.3373 H   0  0  0  0  0  0  0  0  0  0  0  0
    2.8190   -2.0827   -1.6015 H   0  0  0  0  0  0  0  0  0  0  0  0
    2.9770   -2.0202   -3.3637 H   0  0  0  0  0  0  0  0  0  0  0  0
    1.1034   -0.5636   -2.5585 H   0  0  0  0  0  0  0  0  0  0  0  0
    2.3762    0.3969   -3.3539 H   0  0  0  0  0  0  0  0  0  0  0  0
    5.1960   -0.8267    1.5493 H   0  0  0  0  0  0  0  0  0  0  0  0
    4.1860    0.4949    2.2061 H   0  0  0  0  0  0  0  0  0  0  0  0
    3.2934   -2.4277    2.0874 H   0  0  0  0  0  0  0  0  0  0  0  0
    3.9747   -1.6469    3.5257 H   0  0  0  0  0  0  0  0  0  0  0  0
    2.4397   -1.0775    2.8598 H   0  0  0  0  0  0  0  0  0  0  0  0
   -0.0349    0.1487    1.7992 H   0  0  0  0  0  0  0  0  0  0  0  0
   -0.1313   -1.5348    2.4286 H   0  0  0  0  0  0  0  0  0  0  0  0
   -2.6385    3.1900    0.1784 H   0  0  0  0  0  0  0  0  0  0  0  0
   -4.1911    2.9691    1.0364 H   0  0  0  0  0  0  0  0  0  0  0  0
   -2.9247    1.5686    2.7543 H   0  0  0  0  0  0  0  0  0  0  0  0
   -1.4158    2.0306    1.9372 H   0  0  0  0  0  0  0  0  0  0  0  0
   -2.4121    3.2650    2.7030 H   0  0  0  0  0  0  0  0  0  0  0  0
   -3.6900   -1.4089   -3.0919 H   0  0  0  0  0  0  0  0  0  0  0  0
   -2.0892   -0.6164   -3.0363 H   0  0  0  0  0  0  0  0  0  0  0  0
   -2.8612   -3.0583   -1.3594 H   0  0  0  0  0  0  0  0  0  0  0  0
   -1.9397   -3.1324   -2.8717 H   0  0  0  0  0  0  0  0  0  0  0  0
   -1.2570   -2.3204   -1.4572 H   0  0  0  0  0  0  0  0  0  0  0  0
  1  2  1  0  0  0  0
  2  3  1  0  0  0  0
  3  4  2  0  0  0  0
  4  5  2  0  0  0  0
  4  6  2  0  0  0  0
  6  7  1  0  0  0  0
  7  8  1  0  0  0  0
  4  9  1  0  0  0  0
  9 10  1  0  0  0  0
 10 11  1  0  0  0  0
 11 12  1  0  0  0  0
 12 13  2  0  0  0  0
 12 14  2  0  0  0  0
 14 15  1  0  0  0  0
 15 16  1  0  0  0  0
 12 17  2  0  0  0  0
 17 18  1  0  0  0  0
 18 19  1  0  0  0  0
  1 20  1  0  0  0  0
  1 21  1  0  0  0  0
  1 22  1  0  0  0  0
  2 23  1  0  0  0  0
  2 24  1  0  0  0  0
  7 25  1  0  0  0  0
  7 26  1  0  0  0  0
  8 27  1  0  0  0  0
  8 28  1  0  0  0  0
  8 29  1  0  0  0  0
 10 30  1  0  0  0  0
 10 31  1  0  0  0  0
 15 32  1  0  0  0  0
 15 33  1  0  0  0  0
 16 34  1  0  0  0  0
 16 35  1  0  0  0  0
 16 36  1  0  0  0  0
 18 37  1  0  0  0  0
 18 38  1  0  0  0  0
 19 39  1  0  0  0  0
 19 40  1  0  0  0  0
 19 41  1  0  0  0  0
M  END
