 xtb: 6.7.1 (edcfbbe)
          04092507313D

 38 37  0     0  0            999 V2000
    2.4678   -2.9688    0.4023 C   0  0  0  0  0  0  0  0  0  0  0  0
    3.2125   -2.6804   -0.8919 C   0  0  0  0  0  0  0  0  0  0  0  0
    2.3852   -1.8983   -1.7757 O   0  0  0  0  0  0  0  0  0  0  0  0
    2.3591   -0.5945   -1.6183 C   0  0  0  0  0  0  0  0  0  0  0  0
    3.0537    0.0250   -0.8399 O   0  0  0  0  0  0  0  0  0  0  0  0
    1.3027    0.0562   -2.4914 C   0  0  0  0  0  0  0  0  0  0  0  0
    0.1840    0.5452   -1.5639 C   0  0  0  0  0  0  0  0  0  0  0  0
   -0.5691    1.0905   -2.1390 H   0  0  0  0  0  0  0  0  0  0  0  0
    0.7821    1.4975   -0.5417 C   0  0  0  0  0  0  0  0  0  0  0  0
    1.1961    2.5877   -0.8608 O   0  0  0  0  0  0  0  0  0  0  0  0
    0.8286    1.0057    0.6798 O   0  0  0  0  0  0  0  0  0  0  0  0
    1.4933    1.8181    1.6701 C   0  0  0  0  0  0  0  0  0  0  0  0
    1.5204    1.0673    2.9847 C   0  0  0  0  0  0  0  0  0  0  0  0
   -0.6154   -0.8913   -0.7767 S   0  0  0  0  0  0  0  0  0  0  0  0
   -1.9057    0.1580    0.5451 P   0  0  0  0  0  0  0  0  0  0  0  0
   -2.2044    2.0562    0.1556 S   0  0  0  0  0  0  0  0  0  0  0  0
   -3.2324   -0.7370    0.5039 O   0  0  0  0  0  0  0  0  0  0  0  0
   -4.0624   -0.7847   -0.6619 C   0  0  0  0  0  0  0  0  0  0  0  0
   -1.4315   -0.1205    2.0235 O   0  0  0  0  0  0  0  0  0  0  0  0
   -1.2336   -1.4661    2.5083 C   0  0  0  0  0  0  0  0  0  0  0  0
    1.5279   -3.4685    0.1839 H   0  0  0  0  0  0  0  0  0  0  0  0
    3.0774   -3.6012    1.0387 H   0  0  0  0  0  0  0  0  0  0  0  0
    2.2592   -2.0361    0.9228 H   0  0  0  0  0  0  0  0  0  0  0  0
    3.4201   -3.5943   -1.4475 H   0  0  0  0  0  0  0  0  0  0  0  0
    4.1375   -2.1301   -0.6974 H   0  0  0  0  0  0  0  0  0  0  0  0
    0.9141   -0.6668   -3.2063 H   0  0  0  0  0  0  0  0  0  0  0  0
    1.7315    0.9215   -2.9986 H   0  0  0  0  0  0  0  0  0  0  0  0
    2.4998    2.0235    1.2917 H   0  0  0  0  0  0  0  0  0  0  0  0
    0.9479    2.7642    1.7482 H   0  0  0  0  0  0  0  0  0  0  0  0
    2.0203    0.1115    2.8574 H   0  0  0  0  0  0  0  0  0  0  0  0
    2.0620    1.6595    3.7146 H   0  0  0  0  0  0  0  0  0  0  0  0
    0.5069    0.9016    3.3373 H   0  0  0  0  0  0  0  0  0  0  0  0
   -3.5614   -1.3469   -1.4497 H   0  0  0  0  0  0  0  0  0  0  0  0
   -4.2848    0.2265   -1.0062 H   0  0  0  0  0  0  0  0  0  0  0  0
   -4.9741   -1.2882   -0.3509 H   0  0  0  0  0  0  0  0  0  0  0  0
   -2.1796   -2.0032    2.5040 H   0  0  0  0  0  0  0  0  0  0  0  0
   -0.8566   -1.3544    3.5213 H   0  0  0  0  0  0  0  0  0  0  0  0
   -0.5067   -1.9814    1.8808 H   0  0  0  0  0  0  0  0  0  0  0  0
  1  2  1  0  0  0  0
  2  3  1  0  0  0  0
  3  4  4  0  0  0  0
  4  5  2  0  0  0  0
  4  6  1  0  0  0  0
  6  7  1  0  0  0  0
  7  8  1  0  0  0  0
  7  9  1  0  0  0  0
  9 10  2  0  0  0  0
  9 11  1  0  0  0  0
 11 12  1  0  0  0  0
 12 13  1  0  0  0  0
  7 14  1  0  0  0  0
 14 15  1  0  0  0  0
 15 16  2  0  0  0  0
 15 17  1  0  0  0  0
 17 18  1  0  0  0  0
 15 19  2  0  0  0  0
 19 20  1  0  0  0  0
  1 21  1  0  0  0  0
  1 22  1  0  0  0  0
  1 23  1  0  0  0  0
  2 24  1  0  0  0  0
  2 25  1  0  0  0  0
  6 26  1  0  0  0  0
  6 27  1  0  0  0  0
 12 28  1  0  0  0  0
 12 29  1  0  0  0  0
 13 30  1  0  0  0  0
 13 31  1  0  0  0  0
 13 32  1  0  0  0  0
 18 33  1  0  0  0  0
 18 34  1  0  0  0  0
 18 35  1  0  0  0  0
 20 36  1  0  0  0  0
 20 37  1  0  0  0  0
 20 38  1  0  0  0  0
M  END
