 xtb: 6.7.1 (edcfbbe)
          04092505213D

 41 40  0     0  0            999 V2000
    3.4572    2.3890   -1.6003 C   0  0  0  0  0  0  0  0  0  0  0  0
    4.2451    1.7816   -0.4574 C   0  0  0  0  0  0  0  0  0  0  0  0
    3.8731    0.4131   -0.2255 O   0  0  0  0  0  0  0  0  0  0  0  0
    2.4665    0.0095    0.3978 P   0  0  0  0  0  0  0  0  0  0  0  0
    1.9061    1.1815    1.8724 S   0  0  0  0  0  0  0  0  0  0  0  0
    2.7241   -1.5071    0.7697 O   0  0  0  0  0  0  0  0  0  0  0  0
    2.8630   -1.9823    2.1275 C   0  0  0  0  0  0  0  0  0  0  0  0
    1.6256   -2.7539    2.5419 C   0  0  0  0  0  0  0  0  0  0  0  0
    1.2291   -0.2275   -1.3063 S   0  0  0  0  0  0  0  0  0  0  0  0
    0.0216   -1.3927   -0.6124 C   0  0  0  0  0  0  0  0  0  0  0  0
   -1.0109   -0.6875    0.7005 S   0  0  0  0  0  0  0  0  0  0  0  0
   -2.5908    0.0941   -0.4993 P   0  0  0  0  0  0  0  0  0  0  0  0
   -2.7484   -0.7060   -2.2880 S   0  0  0  0  0  0  0  0  0  0  0  0
   -2.4687    1.6727   -0.4627 O   0  0  0  0  0  0  0  0  0  0  0  0
   -1.5024    2.4001   -1.2473 C   0  0  0  0  0  0  0  0  0  0  0  0
   -0.5777    3.1769   -0.3312 C   0  0  0  0  0  0  0  0  0  0  0  0
   -3.8640    0.0146    0.4284 O   0  0  0  0  0  0  0  0  0  0  0  0
   -4.7312   -1.1358    0.4355 C   0  0  0  0  0  0  0  0  0  0  0  0
   -4.0569   -2.3628    1.0158 C   0  0  0  0  0  0  0  0  0  0  0  0
    3.8191    3.3931   -1.7964 H   0  0  0  0  0  0  0  0  0  0  0  0
    3.5633    1.7832   -2.4966 H   0  0  0  0  0  0  0  0  0  0  0  0
    2.4013    2.4363   -1.3354 H   0  0  0  0  0  0  0  0  0  0  0  0
    4.0830    2.3461    0.4671 H   0  0  0  0  0  0  0  0  0  0  0  0
    5.3115    1.7326   -0.6810 H   0  0  0  0  0  0  0  0  0  0  0  0
    3.7500   -2.6172    2.1192 H   0  0  0  0  0  0  0  0  0  0  0  0
    3.0263   -1.1279    2.7914 H   0  0  0  0  0  0  0  0  0  0  0  0
    0.7526   -2.1027    2.5187 H   0  0  0  0  0  0  0  0  0  0  0  0
    1.4606   -3.5948    1.8738 H   0  0  0  0  0  0  0  0  0  0  0  0
    1.7616   -3.1247    3.5526 H   0  0  0  0  0  0  0  0  0  0  0  0
    0.5484   -2.2444   -0.1921 H   0  0  0  0  0  0  0  0  0  0  0  0
   -0.6181   -1.6907   -1.4465 H   0  0  0  0  0  0  0  0  0  0  0  0
   -0.9452    1.7070   -1.8877 H   0  0  0  0  0  0  0  0  0  0  0  0
   -2.0832    3.0757   -1.8794 H   0  0  0  0  0  0  0  0  0  0  0  0
   -1.1591    3.8271    0.3159 H   0  0  0  0  0  0  0  0  0  0  0  0
    0.0042    2.5050    0.2968 H   0  0  0  0  0  0  0  0  0  0  0  0
    0.0975    3.7785   -0.9315 H   0  0  0  0  0  0  0  0  0  0  0  0
   -5.5785   -0.8164    1.0439 H   0  0  0  0  0  0  0  0  0  0  0  0
   -5.0621   -1.3270   -0.5903 H   0  0  0  0  0  0  0  0  0  0  0  0
   -3.6285   -2.1335    1.9884 H   0  0  0  0  0  0  0  0  0  0  0  0
   -4.7898   -3.1562    1.1225 H   0  0  0  0  0  0  0  0  0  0  0  0
   -3.2636   -2.7022    0.3512 H   0  0  0  0  0  0  0  0  0  0  0  0
  1  2  1  0  0  0  0
  2  3  1  0  0  0  0
  3  4  2  0  0  0  0
  4  5  2  0  0  0  0
  4  6  2  0  0  0  0
  6  7  1  0  0  0  0
  7  8  1  0  0  0  0
  4  9  1  0  0  0  0
  9 10  1  0  0  0  0
 10 11  1  0  0  0  0
 11 12  1  0  0  0  0
 12 13  2  0  0  0  0
 12 14  2  0  0  0  0
 14 15  1  0  0  0  0
 15 16  1  0  0  0  0
 12 17  2  0  0  0  0
 17 18  1  0  0  0  0
 18 19  1  0  0  0  0
  1 20  1  0  0  0  0
  1 21  1  0  0  0  0
  1 22  1  0  0  0  0
  2 23  1  0  0  0  0
  2 24  1  0  0  0  0
  7 25  1  0  0  0  0
  7 26  1  0  0  0  0
  8 27  1  0  0  0  0
  8 28  1  0  0  0  0
  8 29  1  0  0  0  0
 10 30  1  0  0  0  0
 10 31  1  0  0  0  0
 15 32  1  0  0  0  0
 15 33  1  0  0  0  0
 16 34  1  0  0  0  0
 16 35  1  0  0  0  0
 16 36  1  0  0  0  0
 18 37  1  0  0  0  0
 18 38  1  0  0  0  0
 19 39  1  0  0  0  0
 19 40  1  0  0  0  0
 19 41  1  0  0  0  0
M  END
