 xtb: 6.7.1 (edcfbbe)
          04092505203D

 41 40  0     0  0            999 V2000
    3.2407    0.3521    3.3121 C   0  0  0  0  0  0  0  0  0  0  0  0
    1.8956   -0.1147    2.7978 C   0  0  0  0  0  0  0  0  0  0  0  0
    1.6383    0.4116    1.4797 O   0  0  0  0  0  0  0  0  0  0  0  0
    2.3588   -0.1612    0.1896 P   0  0  0  0  0  0  0  0  0  0  0  0
    2.9047   -2.0424    0.3558 S   0  0  0  0  0  0  0  0  0  0  0  0
    3.4963    0.9258   -0.0228 O   0  0  0  0  0  0  0  0  0  0  0  0
    4.1731    1.2006   -1.2623 C   0  0  0  0  0  0  0  0  0  0  0  0
    4.7375   -0.0439   -1.9158 C   0  0  0  0  0  0  0  0  0  0  0  0
    0.9539    0.2727   -1.3347 S   0  0  0  0  0  0  0  0  0  0  0  0
   -0.0664   -1.1993   -1.0615 C   0  0  0  0  0  0  0  0  0  0  0  0
   -1.1515   -1.0423    0.3721 S   0  0  0  0  0  0  0  0  0  0  0  0
   -2.5143    0.3341   -0.5340 P   0  0  0  0  0  0  0  0  0  0  0  0
   -2.8773   -0.0313   -2.4234 S   0  0  0  0  0  0  0  0  0  0  0  0
   -1.9164    1.7814   -0.3348 O   0  0  0  0  0  0  0  0  0  0  0  0
   -2.0501    2.6067    0.8474 C   0  0  0  0  0  0  0  0  0  0  0  0
   -1.3638    2.0034    2.0543 C   0  0  0  0  0  0  0  0  0  0  0  0
   -3.7755    0.3453    0.4303 O   0  0  0  0  0  0  0  0  0  0  0  0
   -4.8699   -0.5785    0.2797 C   0  0  0  0  0  0  0  0  0  0  0  0
   -4.4637   -2.0075    0.5742 C   0  0  0  0  0  0  0  0  0  0  0  0
    4.0309   -0.0404    2.6727 H   0  0  0  0  0  0  0  0  0  0  0  0
    3.2917    1.4375    3.3035 H   0  0  0  0  0  0  0  0  0  0  0  0
    3.3885   -0.0117    4.3239 H   0  0  0  0  0  0  0  0  0  0  0  0
    1.0708    0.2609    3.4043 H   0  0  0  0  0  0  0  0  0  0  0  0
    1.8538   -1.2076    2.7523 H   0  0  0  0  0  0  0  0  0  0  0  0
    3.4673    1.7020   -1.9309 H   0  0  0  0  0  0  0  0  0  0  0  0
    4.9653    1.8939   -0.9735 H   0  0  0  0  0  0  0  0  0  0  0  0
    5.3803   -0.5801   -1.2215 H   0  0  0  0  0  0  0  0  0  0  0  0
    3.9294   -0.7076   -2.2214 H   0  0  0  0  0  0  0  0  0  0  0  0
    5.3119    0.2382   -2.7923 H   0  0  0  0  0  0  0  0  0  0  0  0
    0.5818   -2.0589   -0.8845 H   0  0  0  0  0  0  0  0  0  0  0  0
   -0.6730   -1.3334   -1.9581 H   0  0  0  0  0  0  0  0  0  0  0  0
   -1.5835    3.5461    0.5466 H   0  0  0  0  0  0  0  0  0  0  0  0
   -3.1139    2.7615    1.0374 H   0  0  0  0  0  0  0  0  0  0  0  0
   -0.3198    1.7998    1.8285 H   0  0  0  0  0  0  0  0  0  0  0  0
   -1.4214    2.7039    2.8817 H   0  0  0  0  0  0  0  0  0  0  0  0
   -1.8519    1.0729    2.3389 H   0  0  0  0  0  0  0  0  0  0  0  0
   -5.6128   -0.2156    0.9914 H   0  0  0  0  0  0  0  0  0  0  0  0
   -5.2557   -0.4916   -0.7406 H   0  0  0  0  0  0  0  0  0  0  0  0
   -3.7760   -2.3650   -0.1906 H   0  0  0  0  0  0  0  0  0  0  0  0
   -3.9750   -2.0730    1.5430 H   0  0  0  0  0  0  0  0  0  0  0  0
   -5.3475   -2.6373    0.5725 H   0  0  0  0  0  0  0  0  0  0  0  0
  1  2  1  0  0  0  0
  2  3  1  0  0  0  0
  3  4  2  0  0  0  0
  4  5  2  0  0  0  0
  4  6  2  0  0  0  0
  6  7  1  0  0  0  0
  7  8  1  0  0  0  0
  4  9  1  0  0  0  0
  9 10  1  0  0  0  0
 10 11  1  0  0  0  0
 11 12  1  0  0  0  0
 12 13  2  0  0  0  0
 12 14  2  0  0  0  0
 14 15  1  0  0  0  0
 15 16  1  0  0  0  0
 12 17  2  0  0  0  0
 17 18  1  0  0  0  0
 18 19  1  0  0  0  0
  1 20  1  0  0  0  0
  1 21  1  0  0  0  0
  1 22  1  0  0  0  0
  2 23  1  0  0  0  0
  2 24  1  0  0  0  0
  7 25  1  0  0  0  0
  7 26  1  0  0  0  0
  8 27  1  0  0  0  0
  8 28  1  0  0  0  0
  8 29  1  0  0  0  0
 10 30  1  0  0  0  0
 10 31  1  0  0  0  0
 15 32  1  0  0  0  0
 15 33  1  0  0  0  0
 16 34  1  0  0  0  0
 16 35  1  0  0  0  0
 16 36  1  0  0  0  0
 18 37  1  0  0  0  0
 18 38  1  0  0  0  0
 19 39  1  0  0  0  0
 19 40  1  0  0  0  0
 19 41  1  0  0  0  0
M  END
