 xtb: 6.7.1 (edcfbbe)
          04092505213D

 41 40  0     0  0            999 V2000
    5.6700    0.9818   -1.5645 C   0  0  0  0  0  0  0  0  0  0  0  0
    4.2556    0.4435   -1.6382 C   0  0  0  0  0  0  0  0  0  0  0  0
    3.7120    0.4503   -0.3020 O   0  0  0  0  0  0  0  0  0  0  0  0
    2.1520    0.3020   -0.0376 P   0  0  0  0  0  0  0  0  0  0  0  0
    1.0152    1.5989   -0.9619 S   0  0  0  0  0  0  0  0  0  0  0  0
    2.0749    0.4504    1.5251 O   0  0  0  0  0  0  0  0  0  0  0  0
    2.8390   -0.3799    2.4427 C   0  0  0  0  0  0  0  0  0  0  0  0
    1.9142   -1.3224    3.1851 C   0  0  0  0  0  0  0  0  0  0  0  0
    1.8222   -1.7509   -0.5200 S   0  0  0  0  0  0  0  0  0  0  0  0
    0.0344   -1.6853   -0.7239 C   0  0  0  0  0  0  0  0  0  0  0  0
   -0.7984   -1.1316    0.8098 S   0  0  0  0  0  0  0  0  0  0  0  0
   -2.3923   -0.0657   -0.0436 P   0  0  0  0  0  0  0  0  0  0  0  0
   -2.2869    0.4344   -1.9421 S   0  0  0  0  0  0  0  0  0  0  0  0
   -2.7174    1.1425    0.9412 O   0  0  0  0  0  0  0  0  0  0  0  0
   -2.0388    2.4096    0.9282 C   0  0  0  0  0  0  0  0  0  0  0  0
   -0.9991    2.4696    2.0297 C   0  0  0  0  0  0  0  0  0  0  0  0
   -3.5557   -1.0666    0.3445 O   0  0  0  0  0  0  0  0  0  0  0  0
   -4.9130   -0.8754   -0.1171 C   0  0  0  0  0  0  0  0  0  0  0  0
   -5.1968   -1.7783   -1.3011 C   0  0  0  0  0  0  0  0  0  0  0  0
    6.2695    0.3608   -0.9055 H   0  0  0  0  0  0  0  0  0  0  0  0
    6.1047    0.9768   -2.5585 H   0  0  0  0  0  0  0  0  0  0  0  0
    5.6625    1.9982   -1.1811 H   0  0  0  0  0  0  0  0  0  0  0  0
    4.2362   -0.5850   -2.0086 H   0  0  0  0  0  0  0  0  0  0  0  0
    3.6209    1.0670   -2.2766 H   0  0  0  0  0  0  0  0  0  0  0  0
    3.5986   -0.9265    1.8808 H   0  0  0  0  0  0  0  0  0  0  0  0
    3.3192    0.3265    3.1211 H   0  0  0  0  0  0  0  0  0  0  0  0
    1.1331   -0.7614    3.6901 H   0  0  0  0  0  0  0  0  0  0  0  0
    1.4437   -2.0204    2.4965 H   0  0  0  0  0  0  0  0  0  0  0  0
    2.4905   -1.8772    3.9184 H   0  0  0  0  0  0  0  0  0  0  0  0
   -0.2839   -2.6966   -0.9643 H   0  0  0  0  0  0  0  0  0  0  0  0
   -0.2235   -0.9857   -1.5244 H   0  0  0  0  0  0  0  0  0  0  0  0
   -1.5838    2.5686   -0.0555 H   0  0  0  0  0  0  0  0  0  0  0  0
   -2.8252    3.1500    1.0873 H   0  0  0  0  0  0  0  0  0  0  0  0
   -0.5859    3.4722    2.0717 H   0  0  0  0  0  0  0  0  0  0  0  0
   -1.4551    2.2220    2.9840 H   0  0  0  0  0  0  0  0  0  0  0  0
   -0.1899    1.7691    1.8306 H   0  0  0  0  0  0  0  0  0  0  0  0
   -5.5365   -1.1310    0.7412 H   0  0  0  0  0  0  0  0  0  0  0  0
   -5.0615    0.1758   -0.3784 H   0  0  0  0  0  0  0  0  0  0  0  0
   -4.9970   -2.8125   -1.0358 H   0  0  0  0  0  0  0  0  0  0  0  0
   -6.2375   -1.6739   -1.5906 H   0  0  0  0  0  0  0  0  0  0  0  0
   -4.5642   -1.5014   -2.1419 H   0  0  0  0  0  0  0  0  0  0  0  0
  1  2  1  0  0  0  0
  2  3  1  0  0  0  0
  3  4  2  0  0  0  0
  4  5  2  0  0  0  0
  4  6  2  0  0  0  0
  6  7  1  0  0  0  0
  7  8  1  0  0  0  0
  4  9  1  0  0  0  0
  9 10  1  0  0  0  0
 10 11  1  0  0  0  0
 11 12  1  0  0  0  0
 12 13  2  0  0  0  0
 12 14  2  0  0  0  0
 14 15  1  0  0  0  0
 15 16  1  0  0  0  0
 12 17  2  0  0  0  0
 17 18  1  0  0  0  0
 18 19  1  0  0  0  0
  1 20  1  0  0  0  0
  1 21  1  0  0  0  0
  1 22  1  0  0  0  0
  2 23  1  0  0  0  0
  2 24  1  0  0  0  0
  7 25  1  0  0  0  0
  7 26  1  0  0  0  0
  8 27  1  0  0  0  0
  8 28  1  0  0  0  0
  8 29  1  0  0  0  0
 10 30  1  0  0  0  0
 10 31  1  0  0  0  0
 15 32  1  0  0  0  0
 15 33  1  0  0  0  0
 16 34  1  0  0  0  0
 16 35  1  0  0  0  0
 16 36  1  0  0  0  0
 18 37  1  0  0  0  0
 18 38  1  0  0  0  0
 19 39  1  0  0  0  0
 19 40  1  0  0  0  0
 19 41  1  0  0  0  0
M  END
